 ****** HSPICE -- D-2010.03-SP1 32-BIT (May 26 2010) winnt ******               
  Copyright (C) 2010 Synopsys, Inc. All Rights Reserved.                        
  Unpublished-rights reserved under US copyright laws.
  This program is protected by law and is subject to the 
  terms and conditions of the license agreement from Synopsys.
  Use of this program is your acceptance to be bound by the 
  license agreement. HSPICE is the trademark of Synopsys, Inc.
  Input File: d:\synopsys\hspice\trytry\bjtamplifierdc.sp                       
  lic:  
  lic: FLEXlm: v8.5b 
  lic: USER:   zrc                  HOSTNAME: LAPTOP-O4SR7NUK 
  lic: HOSTID: "005056c00001 00ffd46088fe a87eea1f533c 005056c00008 a87eea1f5338
  
  lic: Using FLEXlm license file: 
  lic: C:\flexlm\hspice.dat 
  lic: Checkout 1 hspice 
  lic: License/Maintenance for hspice will expire on 31-dec-2020/2007.9 
  lic: NODE LOCKED license on hostid "005056c00001 00ffd46088fe a87eea1f533c 005
 0
  lic:   
 Init: read install configuration file: D:\synopsys\Hspice_D-2010.03-SP1\meta.cfg
 scientific notation:
 a=10**-18  f=10**-15  p=10**-12  n=10**-9  u=10**-6
 m=10**-3   k=10**3    x=10**6    g=10**9 


 circuit parameter definitions
  parameter          =  value 





 constants  - tnom         kt           vt           gapsi        ni
            298.15000    4.1163e-21    25.69184m     1.11562    1.2565e+16 
1****** HSPICE -- D-2010.03-SP1 32-BIT (May 26 2010) winnt ******               
 ******  
 * bjt amplifier circuit

  ******  bjt   model parameters tnom=  25.000 temp=  25.000 *****

 ************************************************************************
 *** bjt model parameters   model name:   0:mod1     model type:npn   ***
 ************************************************************************

     names  values   units     names  values   units     names  values   units
     -----  ------   -----     -----  ------   -----     -----  ------   -----

   1*** basic dc parameters ***
    level=   1.00                bf= 100.00                br=   1.00         
      brs=   0.                bulk=  gnd                  is= 2.0e-16 amps   
      iss=   0.    amps          nf=   1.00                nr=   1.00         
       ns=   1.00               ibe=   0.    amps         ibc=   0.    amps   
     subs=   1.00             expli=   0.    amps   

   2*** low current beta degradation effect parameters ***
      isc=   0.    amps         ise=   0.    amps          nc=   2.00         
       ne=   1.50         

   3*** base width modulation parameters ***
      vaf=   0.    volts        var=   0.    volts  

   4*** high current beta degradation effect parameters ***
      ikf=   0.    amps         nkf= 500.00m              ikr=   0.    amps   

   5*** parasitic resistor parameters ***
      irb=   0.    amps          rb=   0.    ohms         rbm=   0.    ohms   
       re=   0.    ohms          rc=   0.    ohms         rcc=   0.    ohms   
       vo=   0.    volts      gamma=   0.           

   6*** junction capacitor parameters ***
     cbcp=   0.    farad       cbep=   0.    farad       ccsp=   0.    farad  
      cjc=   5.00p farad        cje=  10.00p farad        cjs=   0.    farad  
       fc= 500.00m              mjc= 330.00m              mje= 330.00m        
      mjs= 500.00m              vjc= 750.00m volts        vje= 750.00m volts  
      vjs= 750.00m volts       xcjc=   1.00               qco=   0.    coul   

   7*** transit time parameters ***
      itf=   0.    amps         ptf=   0.    deg k         tf=   0.    secs   
       tr=   0.    secs         vtf=   0.                 xtf=   0.           

   8*** temperature compensation parameters ***
     tlev=   0.               tlevc=   0.                tre1=   0.    /deg   
     tre2=   0.    /deg2       trb1=   0.    /deg        trc1=   0.    /deg   
     trb2=   0.    /deg2       trm1=   0.    /deg         xtb=   0.           
     trm2=   0.    /deg2        xti=   3.00               cte=   0.    /deg   
      ctc=   0.    /deg         cts=   0.    /deg        trc2=   0.    /deg2  
     tref=  25.00   deg c       bex=   2.42              bexv=   1.90         

   9*** noise parameters ***
       kf=   0.                  af=   1.00         
1****** HSPICE -- D-2010.03-SP1 32-BIT (May 26 2010) winnt ******               
 ******  
 * bjt amplifier circuit

  ******  circuit element summary tnom=  25.000 temp=  25.000 *****


 **** resistors

  
 
                                                              
 element name        0:r1       0:r2       0:r3       0:r4    
 node1               0:103      0:101      0:105      0:101   
 node2               0:0        0:104      0:0        0:106   
 model                                                        
 res eff            10.0000k   27.0000k    2.0000k   10.0000k 
 tc1                 0.         0.         0.         0.      
 tc2                 0.         0.         0.         0.      
 scale               1.0000     1.0000     1.0000     1.0000  
 m                   1.0000     1.0000     1.0000     1.0000  
 ac                 10.0000k   27.0000k    2.0000k   10.0000k 
 temp               25.0000    25.0000    25.0000    25.0000  
 l                   0.         0.         0.         0.      
 w                   0.         0.         0.         0.      
 cap                 0.         0.         0.         0.      
 noise            1.000e+00  1.000e+00  1.000e+00  1.000e+00  
  
 
                                                              
 element name        0:r5       0:r6       0:rb1      0:rb2   
 node1               0:107      0:101      0:102      0:103   
 node2               0:0        0:108      0:109      0:110   
 model                                                        
 res eff            10.0000k   10.0000k    1.9000x  190.0000k 
 tc1                 0.         0.         0.         0.      
 tc2                 0.         0.         0.         0.      
 scale               1.0000     1.0000     1.0000     1.0000  
 m                   1.0000     1.0000     1.0000     1.0000  
 ac                 10.0000k   10.0000k    1.9000x  190.0000k 
 temp               25.0000    25.0000    25.0000    25.0000  
 l                   0.         0.         0.         0.      
 w                   0.         0.         0.         0.      
 cap                 0.         0.         0.         0.      
 noise            1.000e+00  1.000e+00  1.000e+00  1.000e+00  
  
 
                             
 element name        0:rb3   
 node1               0:104   
 node2               0:111   
 model                       
 res eff             3.7000x 
 tc1                 0.      
 tc2                 0.      
 scale               1.0000  
 m                   1.0000  
 ac                  3.7000x 
 temp               25.0000  
 l                   0.      
 w                   0.      
 cap                 0.      
 noise            1.000e+00  


 **** independent sources

     name         node1        node2      dc volt    ac mag    ac phase    type
  vcc  101               0                    9.0000     0.         0.      dc   
  vbb  102               0                    5.0000     0.         0.      dc   


 **** bipolar junction transistors

  
 
                                                
 element name        0:q1      0:q2      0:q3   
 collector           0:108     0:104     0:106  
 base                0:109     0:110     0:111  
 emitter             0:103     0:105     0:107  
 bulk                0:0       0:0       0:0    
 model               0:mod1    0:mod1    0:mod1 
 area                1.0000    1.0000    1.0000 
 
1****** HSPICE -- D-2010.03-SP1 32-BIT (May 26 2010) winnt ******               
 ******  
 * bjt amplifier circuit

  ******  element node table
                                                                                      
 0                r1               r3               r5               vcc              
                  vbb              q1:s             q2:s             q3:s             
 101              r2               r4               r6               vcc              
 102              rb1              vbb                                                
 103              r1               rb2              q1:e                              
 104              r2               rb3              q2:c                              
 105              r3               q2:e                                               
 106              r4               q3:c                                               
 107              r5               q3:e                                               
 108              r6               q1:c                                               
 109              rb1              q1:b                                               
 110              rb2              q2:b                                               
 111              rb3              q3:b                                               
 *****************************************************************
 ******  option summary
 ******
 runlvl  = 3         bypass  = 2         
 ******  
 * bjt amplifier circuit

  ******  dc transfer curves tnom=  25.000 temp=  25.000 *****
x

        volt    current 1    current 2    current 3    current 1  
                    q1           q1           q1           q3     
    2.00000      45.6386u    456.3793n     46.0950u    175.0730u  
    2.01000      45.9758u    459.7508n     46.4355u    175.0720u  
    2.02000      46.3130u    463.1228n     46.7761u    175.0709u  
    2.03000      46.6502u    466.4952n     47.1167u    175.0696u  
    2.04000      46.9875u    469.8682n     47.4574u    175.0681u  
    2.05000      47.3248u    473.2415n     47.7981u    175.0664u  
    2.06000      47.6622u    476.6154n     48.1388u    175.0645u  
    2.07000      47.9996u    479.9896n     48.4796u    175.0623u  
    2.08000      48.3371u    483.3644n     48.8205u    175.0598u  
    2.09000      48.6746u    486.7395n     49.1614u    175.0570u  
    2.10000      49.0122u    490.1151n     49.5023u    175.0537u  
    2.11000      49.3498u    493.4912n     49.8433u    175.0500u  
    2.12000      49.6874u    496.8677n     50.1843u    175.0458u  
    2.13000      50.0251u    500.2446n     50.5254u    175.0410u  
    2.14000      50.3629u    503.6219n     50.8665u    175.0355u  
    2.15000      50.7006u    506.9997n     51.2076u    175.0293u  
    2.16000      51.0385u    510.3779n     51.5488u    175.0222u  
    2.17000      51.3763u    513.7566n     51.8901u    175.0141u  
    2.18000      51.7142u    517.1357n     52.2314u    175.0049u  
    2.19000      52.0522u    520.5153n     52.5727u    174.9945u  
    2.20000      52.3902u    523.8953n     52.9141u    174.9827u  
    2.21000      52.7282u    527.2757n     53.2555u    174.9692u  
    2.22000      53.0663u    530.6566n     53.5970u    174.9540u  
    2.23000      53.4045u    534.0380n     53.9385u    174.9368u  
    2.24000      53.7427u    537.4199n     54.2801u    174.9173u  
    2.25000      54.0809u    540.8023n     54.6217u    174.8952u  
    2.26000      54.4192u    544.1852n     54.9634u    174.8704u  
    2.27000      54.7575u    547.5686n     55.3051u    174.8424u  
    2.28000      55.0959u    550.9525n     55.6469u    174.8109u  
    2.29000      55.4344u    554.3370n     55.9887u    174.7756u  
    2.30000      55.7729u    557.7221n     56.3306u    174.7361u  
    2.31000      56.1114u    561.1077n     56.6725u    174.6918u  
    2.32000      56.4501u    564.4940n     57.0146u    174.6426u  
    2.33000      56.7888u    567.8810n     57.3566u    174.5877u  
    2.34000      57.1275u    571.2686n     57.6988u    174.5269u  
    2.35000      57.4663u    574.6568n     58.0410u    174.4597u  
    2.36000      57.8052u    578.0458n     58.3833u    174.3856u  
    2.37000      58.1442u    581.4356n     58.7256u    174.3042u  
    2.38000      58.4833u    584.8260n     59.0681u    174.2151u  
    2.39000      58.8224u    588.2173n     59.4106u    174.1179u  
    2.40000      59.1616u    591.6094n     59.7532u    174.0122u  
    2.41000      59.5009u    595.0022n     60.0959u    173.8977u  
    2.42000      59.8402u    598.3959n     60.4386u    173.7741u  
    2.43000      60.1797u    601.7904n     60.7815u    173.6413u  
    2.44000      60.5192u    605.1858n     61.1244u    173.4990u  
    2.45000      60.8588u    608.5820n     61.4674u    173.3472u  
    2.46000      61.1986u    611.9791n     61.8105u    173.1857u  
    2.47000      61.5383u    615.3769n     62.1537u    173.0146u  
    2.48000      61.8782u    618.7757n     62.4970u    172.8340u  
    2.49000      62.2182u    622.1752n     62.8403u    172.6438u  
    2.50000      62.5582u    625.5756n     63.1838u    172.4443u  
    2.51000      62.8983u    628.9768n     63.5273u    172.2355u  
    2.52000      63.2385u    632.3788n     63.8709u    172.0177u  
    2.53000      63.5788u    635.7815n     64.2146u    171.7912u  
    2.54000      63.9191u    639.1850n     64.5583u    171.5561u  
    2.55000      64.2596u    642.5893n     64.9022u    171.3126u  
    2.56000      64.6001u    645.9943n     65.2461u    171.0612u  
    2.57000      64.9406u    649.3999n     65.5900u    170.8020u  
    2.58000      65.2813u    652.8063n     65.9341u    170.5353u  
    2.59000      65.6220u    656.2134n     66.2782u    170.2615u  
    2.60000      65.9627u    659.6210n     66.6224u    169.9807u  
    2.61000      66.3036u    663.0293n     66.9666u    169.6933u  
    2.62000      66.6445u    666.4383n     67.3109u    169.3995u  
    2.63000      66.9854u    669.8478n     67.6553u    169.0996u  
    2.64000      67.3264u    673.2579n     67.9997u    168.7939u  
    2.65000      67.6675u    676.6685n     68.3442u    168.4826u  
    2.66000      68.0086u    680.0797n     68.6887u    168.1659u  
    2.67000      68.3498u    683.4914n     69.0333u    167.8441u  
    2.68000      68.6910u    686.9036n     69.3779u    167.5174u  
    2.69000      69.0323u    690.3164n     69.7226u    167.1860u  
    2.70000      69.3736u    693.7296n     70.0673u    166.8501u  
    2.71000      69.7150u    697.1432n     70.4121u    166.5099u  
    2.72000      70.0564u    700.5574n     70.7569u    166.1656u  
    2.73000      70.3978u    703.9719n     71.1018u    165.8174u  
    2.74000      70.7393u    707.3869n     71.4467u    165.4653u  
    2.75000      71.0809u    710.8023n     71.7917u    165.1097u  
    2.76000      71.4224u    714.2181n     72.1367u    164.7506u  
    2.77000      71.7641u    717.6344n     72.4817u    164.3883u  
    2.78000      72.1057u    721.0510n     72.8268u    164.0227u  
    2.79000      72.4474u    724.4680n     73.1719u    163.6540u  
    2.80000      72.7892u    727.8853n     73.5170u    163.2825u  
    2.81000      73.1309u    731.3030n     73.8622u    162.9081u  
    2.82000      73.4727u    734.7211n     74.2075u    162.5310u  
    2.83000      73.8146u    738.1395n     74.5527u    162.1514u  
    2.84000      74.1564u    741.5583n     74.8980u    161.7692u  
    2.85000      74.4984u    744.9774n     75.2433u    161.3846u  
    2.86000      74.8403u    748.3968n     75.5887u    160.9978u  
    2.87000      75.1823u    751.8165n     75.9341u    160.6087u  
    2.88000      75.5243u    755.2365n     76.2795u    160.2174u  
    2.89000      75.8663u    758.6568n     76.6250u    159.8241u  
    2.90000      76.2084u    762.0775n     76.9704u    159.4288u  
    2.91000      76.5505u    765.4984n     77.3160u    159.0316u  
    2.92000      76.8926u    768.9196n     77.6615u    158.6325u  
    2.93000      77.2347u    772.3410n     78.0071u    158.2316u  
    2.94000      77.5769u    775.7628n     78.3527u    157.8290u  
    2.95000      77.9191u    779.1848n     78.6983u    157.4248u  
    2.96000      78.2613u    782.6071n     79.0439u    157.0189u  
    2.97000      78.6036u    786.0297n     79.3896u    156.6115u  
    2.98000      78.9459u    789.4525n     79.7353u    156.2025u  
    2.99000      79.2882u    792.8755n     80.0810u    155.7921u  
    3.00000      79.6305u    796.2988n     80.4268u    155.3803u  
    3.01000      79.9728u    799.7224n     80.7726u    154.9671u  
    3.02000      80.3152u    803.1462n     81.1184u    154.5526u  
    3.03000      80.6576u    806.5702n     81.4642u    154.1368u  
    3.04000      81.0001u    809.9945n     81.8100u    153.7197u  
    3.05000      81.3425u    813.4190n     82.1559u    153.3015u  
    3.06000      81.6850u    816.8437n     82.5018u    152.8820u  
    3.07000      82.0275u    820.2686n     82.8477u    152.4615u  
    3.08000      82.3700u    823.6938n     83.1937u    152.0398u  
    3.09000      82.7125u    827.1191n     83.5396u    151.6170u  
    3.10000      83.0551u    830.5447n     83.8856u    151.1932u  
    3.11000      83.3977u    833.9705n     84.2316u    150.7684u  
    3.12000      83.7403u    837.3965n     84.5776u    150.3425u  
    3.13000      84.0829u    840.8227n     84.9237u    149.9158u  
    3.14000      84.4255u    844.2491n     85.2698u    149.4881u  
    3.15000      84.7682u    847.6757n     85.6158u    149.0594u  
    3.16000      85.1109u    851.1025n     85.9620u    148.6299u  
    3.17000      85.4535u    854.5295n     86.3081u    148.1996u  
    3.18000      85.7963u    857.9567n     86.6542u    147.7683u  
    3.19000      86.1390u    861.3841n     87.0004u    147.3363u  
    3.20000      86.4818u    864.8116n     87.3466u    146.9035u  
    3.21000      86.8245u    868.2394n     87.6928u    146.4699u  
    3.22000      87.1673u    871.6673n     88.0390u    146.0355u  
    3.23000      87.5101u    875.0954n     88.3852u    145.6004u  
    3.24000      87.8530u    878.5237n     88.7315u    145.1645u  
    3.25000      88.1958u    881.9521n     89.0778u    144.7280u  
    3.26000      88.5387u    885.3808n     89.4241u    144.2908u  
    3.27000      88.8815u    888.8096n     89.7704u    143.8529u  
    3.28000      89.2244u    892.2386n     90.1167u    143.4143u  
    3.29000      89.5674u    895.6677n     90.4630u    142.9751u  
    3.30000      89.9103u    899.0970n     90.8094u    142.5353u  
    3.31000      90.2532u    902.5265n     91.1558u    142.0948u  
    3.32000      90.5962u    905.9561n     91.5022u    141.6538u  
    3.33000      90.9392u    909.3859n     91.8486u    141.2121u  
    3.34000      91.2822u    912.8159n     92.1950u    140.7699u  
    3.35000      91.6252u    916.2460n     92.5414u    140.3272u  
    3.36000      91.9682u    919.6762n     92.8879u    139.8838u  
    3.37000      92.3113u    923.1067n     93.2344u    139.4400u  
    3.38000      92.6543u    926.5372n     93.5808u    138.9956u  
    3.39000      92.9974u    929.9680n     93.9273u    138.5507u  
    3.40000      93.3405u    933.3988n     94.2739u    138.1053u  
    3.41000      93.6836u    936.8299n     94.6204u    137.6594u  
    3.42000      94.0267u    940.2610n     94.9669u    137.2130u  
    3.43000      94.3698u    943.6924n     95.3135u    136.7662u  
    3.44000      94.7130u    947.1238n     95.6601u    136.3189u  
    3.45000      95.0561u    950.5554n     96.0067u    135.8711u  
    3.46000      95.3993u    953.9872n     96.3533u    135.4229u  
    3.47000      95.7425u    957.4190n     96.6999u    134.9742u  
    3.48000      96.0857u    960.8511n     97.0465u    134.5251u  
    3.49000      96.4289u    964.2832n     97.3932u    134.0756u  
    3.50000      96.7721u    967.7155n     97.7398u    133.6257u  
    3.51000      97.1154u    971.1480n     98.0865u    133.1754u  
    3.52000      97.4586u    974.5805n     98.4332u    132.7247u  
    3.53000      97.8019u    978.0132n     98.7799u    132.2735u  
    3.54000      98.1452u    981.4460n     99.1266u    131.8220u  
    3.55000      98.4885u    984.8790n     99.4733u    131.3702u  
    3.56000      98.8318u    988.3121n     99.8201u    130.9179u  
    3.57000      99.1751u    991.7453n    100.1668u    130.4653u  
    3.58000      99.5184u    995.1786n    100.5136u    130.0124u  
    3.59000      99.8618u    998.6121n    100.8604u    129.5591u  
    3.60000     100.2051u      1.0020u    101.2072u    129.1054u  
    3.61000     100.5485u      1.0055u    101.5540u    128.6514u  
    3.62000     100.8919u      1.0089u    101.9008u    128.1971u  
    3.63000     101.2353u      1.0123u    102.2476u    127.7424u  
    3.64000     101.5787u      1.0158u    102.5945u    127.2875u  
    3.65000     101.9221u      1.0192u    102.9413u    126.8322u  
    3.66000     102.2655u      1.0226u    103.2882u    126.3766u  
    3.67000     102.6090u      1.0261u    103.6351u    125.9207u  
    3.68000     102.9524u      1.0295u    103.9820u    125.4645u  
    3.69000     103.2959u      1.0330u    104.3289u    125.0080u  
    3.70000     103.6394u      1.0364u    104.6758u    124.5512u  
    3.71000     103.9829u      1.0398u    105.0227u    124.0941u  
    3.72000     104.3264u      1.0433u    105.3696u    123.6368u  
    3.73000     104.6699u      1.0467u    105.7166u    123.1792u  
    3.74000     105.0134u      1.0501u    106.0635u    122.7213u  
    3.75000     105.3569u      1.0536u    106.4105u    122.2631u  
    3.76000     105.7005u      1.0570u    106.7575u    121.8047u  
    3.77000     106.0440u      1.0604u    107.1045u    121.3460u  
    3.78000     106.3876u      1.0639u    107.4515u    120.8871u  
    3.79000     106.7312u      1.0673u    107.7985u    120.4279u  
    3.80000     107.0748u      1.0707u    108.1455u    119.9684u  
    3.81000     107.4184u      1.0742u    108.4925u    119.5087u  
    3.82000     107.7620u      1.0776u    108.8396u    119.0488u  
    3.83000     108.1056u      1.0811u    109.1866u    118.5887u  
    3.84000     108.4492u      1.0845u    109.5337u    118.1283u  
    3.85000     108.7929u      1.0879u    109.8808u    117.6677u  
    3.86000     109.1365u      1.0914u    110.2279u    117.2068u  
    3.87000     109.4802u      1.0948u    110.5750u    116.7458u  
    3.88000     109.8238u      1.0982u    110.9221u    116.2845u  
    3.89000     110.1675u      1.1017u    111.2692u    115.8230u  
    3.90000     110.5112u      1.1051u    111.6163u    115.3613u  
    3.91000     110.8549u      1.1085u    111.9634u    114.8993u  
    3.92000     111.1986u      1.1120u    112.3106u    114.4372u  
    3.93000     111.5423u      1.1154u    112.6577u    113.9749u  
    3.94000     111.8861u      1.1189u    113.0049u    113.5124u  
    3.95000     112.2298u      1.1223u    113.3521u    113.0496u  
    3.96000     112.5735u      1.1257u    113.6993u    112.5867u  
    3.97000     112.9173u      1.1292u    114.0465u    112.1236u  
    3.98000     113.2611u      1.1326u    114.3937u    111.6603u  
    3.99000     113.6048u      1.1360u    114.7409u    111.1968u  
    4.00000     113.9486u      1.1395u    115.0881u    110.7331u  
    4.01000     114.2924u      1.1429u    115.4353u    110.2693u  
    4.02000     114.6362u      1.1464u    115.7826u    109.8052u  
    4.03000     114.9800u      1.1498u    116.1298u    109.3410u  
    4.04000     115.3238u      1.1532u    116.4771u    108.8766u  
    4.05000     115.6677u      1.1567u    116.8243u    108.4121u  
    4.06000     116.0115u      1.1601u    117.1716u    107.9474u  
    4.07000     116.3554u      1.1635u    117.5189u    107.4825u  
    4.08000     116.6992u      1.1670u    117.8662u    107.0174u  
    4.09000     117.0431u      1.1704u    118.2135u    106.5522u  
    4.10000     117.3869u      1.1739u    118.5608u    106.0868u  
    4.11000     117.7308u      1.1773u    118.9081u    105.6213u  
    4.12000     118.0747u      1.1807u    119.2555u    105.1556u  
    4.13000     118.4186u      1.1842u    119.6028u    104.6897u  
    4.14000     118.7625u      1.1876u    119.9501u    104.2237u  
    4.15000     119.1064u      1.1911u    120.2975u    103.7576u  
    4.16000     119.4504u      1.1945u    120.6449u    103.2913u  
    4.17000     119.7943u      1.1979u    120.9922u    102.8248u  
    4.18000     120.1382u      1.2014u    121.3396u    102.3582u  
    4.19000     120.4822u      1.2048u    121.6870u    101.8915u  
    4.20000     120.8261u      1.2083u    122.0344u    101.4246u  
    4.21000     121.1701u      1.2117u    122.3818u    100.9576u  
    4.22000     121.5141u      1.2151u    122.7292u    100.4905u  
    4.23000     121.8580u      1.2186u    123.0766u    100.0232u  
    4.24000     122.2020u      1.2220u    123.4240u     99.5558u  
    4.25000     122.5460u      1.2255u    123.7715u     99.0882u  
    4.26000     122.8900u      1.2289u    124.1189u     98.6206u  
    4.27000     123.2340u      1.2323u    124.4664u     98.1528u  
    4.28000     123.5781u      1.2358u    124.8138u     97.6848u  
    4.29000     123.9221u      1.2392u    125.1613u     97.2168u  
    4.30000     124.2661u      1.2427u    125.5088u     96.7486u  
    4.31000     124.6101u      1.2461u    125.8562u     96.2803u  
    4.32000     124.9542u      1.2495u    126.2037u     95.8119u  
    4.33000     125.2983u      1.2530u    126.5512u     95.3433u  
    4.34000     125.6423u      1.2564u    126.8987u     94.8747u  
    4.35000     125.9864u      1.2599u    127.2462u     94.4059u  
    4.36000     126.3305u      1.2633u    127.5938u     93.9370u  
    4.37000     126.6745u      1.2667u    127.9413u     93.4680u  
    4.38000     127.0186u      1.2702u    128.2888u     92.9989u  
    4.39000     127.3627u      1.2736u    128.6364u     92.5297u  
    4.40000     127.7068u      1.2771u    128.9839u     92.0604u  
    4.41000     128.0510u      1.2805u    129.3315u     91.5909u  
    4.42000     128.3951u      1.2839u    129.6790u     91.1214u  
    4.43000     128.7392u      1.2874u    130.0266u     90.6517u  
    4.44000     129.0833u      1.2908u    130.3742u     90.1820u  
    4.45000     129.4275u      1.2943u    130.7218u     89.7121u  
    4.46000     129.7716u      1.2977u    131.0693u     89.2422u  
    4.47000     130.1158u      1.3012u    131.4169u     88.7721u  
    4.48000     130.4599u      1.3046u    131.7645u     88.3020u  
    4.49000     130.8041u      1.3080u    132.1122u     87.8317u  
    4.50000     131.1483u      1.3115u    132.4598u     87.3614u  
    4.51000     131.4925u      1.3149u    132.8074u     86.8910u  
    4.52000     131.8367u      1.3184u    133.1550u     86.4204u  
    4.53000     132.1809u      1.3218u    133.5027u     85.9498u  
    4.54000     132.5251u      1.3252u    133.8503u     85.4791u  
    4.55000     132.8693u      1.3287u    134.1980u     85.0083u  
    4.56000     133.2135u      1.3321u    134.5456u     84.5374u  
    4.57000     133.5577u      1.3356u    134.8933u     84.0665u  
    4.58000     133.9019u      1.3390u    135.2409u     83.5954u  
    4.59000     134.2462u      1.3425u    135.5886u     83.1243u  
    4.60000     134.5904u      1.3459u    135.9363u     82.6531u  
    4.61000     134.9347u      1.3493u    136.2840u     82.1818u  
    4.62000     135.2789u      1.3528u    136.6317u     81.7104u  
    4.63000     135.6232u      1.3562u    136.9794u     81.2389u  
    4.64000     135.9674u      1.3597u    137.3271u     80.7674u  
    4.65000     136.3117u      1.3631u    137.6748u     80.2957u  
    4.66000     136.6560u      1.3666u    138.0225u     79.8240u  
    4.67000     137.0003u      1.3700u    138.3703u     79.3523u  
    4.68000     137.3446u      1.3734u    138.7180u     78.8804u  
    4.69000     137.6889u      1.3769u    139.0657u     78.4085u  
    4.70000     138.0332u      1.3803u    139.4135u     77.9365u  
    4.71000     138.3775u      1.3838u    139.7612u     77.4644u  
    4.72000     138.7218u      1.3872u    140.1090u     76.9923u  
    4.73000     139.0661u      1.3907u    140.4568u     76.5201u  
    4.74000     139.4104u      1.3941u    140.8045u     76.0478u  
    4.75000     139.7548u      1.3975u    141.1523u     75.5755u  
    4.76000     140.0991u      1.4010u    141.5001u     75.1031u  
    4.77000     140.4434u      1.4044u    141.8479u     74.6306u  
    4.78000     140.7878u      1.4079u    142.1957u     74.1581u  
    4.79000     141.1321u      1.4113u    142.5435u     73.6855u  
    4.80000     141.4765u      1.4148u    142.8913u     73.2128u  
    4.81000     141.8209u      1.4182u    143.2391u     72.7401u  
    4.82000     142.1652u      1.4216u    143.5869u     72.2673u  
    4.83000     142.5096u      1.4251u    143.9347u     71.7945u  
    4.84000     142.8540u      1.4285u    144.2825u     71.3216u  
    4.85000     143.1984u      1.4320u    144.6304u     70.8486u  
    4.86000     143.5428u      1.4354u    144.9782u     70.3756u  
    4.87000     143.8872u      1.4389u    145.3261u     69.9025u  
    4.88000     144.2316u      1.4423u    145.6739u     69.4294u  
    4.89000     144.5760u      1.4458u    146.0218u     68.9562u  
    4.90000     144.9204u      1.4492u    146.3696u     68.4830u  
    4.91000     145.2649u      1.4526u    146.7175u     68.0097u  
    4.92000     145.6093u      1.4561u    147.0654u     67.5364u  
    4.93000     145.9537u      1.4595u    147.4132u     67.0630u  
    4.94000     146.2982u      1.4630u    147.7611u     66.5896u  
    4.95000     146.6426u      1.4664u    148.1090u     66.1161u  
    4.96000     146.9870u      1.4699u    148.4569u     65.6426u  
    4.97000     147.3315u      1.4733u    148.8048u     65.1691u  
    4.98000     147.6760u      1.4768u    149.1527u     64.6955u  
    4.99000     148.0204u      1.4802u    149.5006u     64.2218u  
    5.00000     148.3649u      1.4836u    149.8485u     63.7481u  
    5.01000     148.7094u      1.4871u    150.1965u     63.2744u  
    5.02000     149.0539u      1.4905u    150.5444u     62.8006u  
    5.03000     149.3983u      1.4940u    150.8923u     62.3268u  
    5.04000     149.7428u      1.4974u    151.2403u     61.8529u  
    5.05000     150.0873u      1.5009u    151.5882u     61.3791u  
    5.06000     150.4318u      1.5043u    151.9361u     60.9051u  
    5.07000     150.7763u      1.5078u    152.2841u     60.4312u  
    5.08000     151.1208u      1.5112u    152.6320u     59.9572u  
    5.09000     151.4654u      1.5146u    152.9800u     59.4832u  
    5.10000     151.8099u      1.5181u    153.3280u     59.0091u  
    5.11000     152.1544u      1.5215u    153.6759u     58.5350u  
    5.12000     152.4989u      1.5250u    154.0239u     58.0609u  
    5.13000     152.8435u      1.5284u    154.3719u     57.5867u  
    5.14000     153.1880u      1.5319u    154.7199u     57.1126u  
    5.15000     153.5326u      1.5353u    155.0679u     56.6384u  
    5.16000     153.8771u      1.5388u    155.4159u     56.1641u  
    5.17000     154.2217u      1.5422u    155.7639u     55.6899u  
    5.18000     154.5662u      1.5457u    156.1119u     55.2156u  
    5.19000     154.9108u      1.5491u    156.4599u     54.7413u  
    5.20000     155.2553u      1.5525u    156.8079u     54.2670u  
    5.21000     155.5999u      1.5560u    157.1559u     53.7927u  
    5.22000     155.9445u      1.5594u    157.5039u     53.3183u  
    5.23000     156.2891u      1.5629u    157.8520u     52.8439u  
    5.24000     156.6337u      1.5663u    158.2000u     52.3695u  
    5.25000     156.9783u      1.5698u    158.5480u     51.8951u  
    5.26000     157.3229u      1.5732u    158.8961u     51.4207u  
    5.27000     157.6675u      1.5767u    159.2441u     50.9463u  
    5.28000     158.0121u      1.5801u    159.5922u     50.4718u  
    5.29000     158.3567u      1.5836u    159.9402u     49.9974u  
    5.30000     158.7013u      1.5870u    160.2883u     49.5229u  
    5.31000     159.0459u      1.5905u    160.6364u     49.0484u  
    5.32000     159.3905u      1.5939u    160.9844u     48.5740u  
    5.33000     159.7352u      1.5973u    161.3325u     48.0995u  
    5.34000     160.0798u      1.6008u    161.6806u     47.6250u  
    5.35000     160.4244u      1.6042u    162.0287u     47.1505u  
    5.36000     160.7691u      1.6077u    162.3768u     46.6760u  
    5.37000     161.1137u      1.6111u    162.7248u     46.2015u  
    5.38000     161.4584u      1.6146u    163.0729u     45.7271u  
    5.39000     161.8030u      1.6180u    163.4210u     45.2526u  
    5.40000     162.1477u      1.6215u    163.7692u     44.7781u  
    5.41000     162.4923u      1.6249u    164.1173u     44.3036u  
    5.42000     162.8370u      1.6284u    164.4654u     43.8292u  
    5.43000     163.1817u      1.6318u    164.8135u     43.3547u  
    5.44000     163.5264u      1.6353u    165.1616u     42.8803u  
    5.45000     163.8710u      1.6387u    165.5097u     42.4059u  
    5.46000     164.2157u      1.6422u    165.8579u     41.9315u  
    5.47000     164.5604u      1.6456u    166.2060u     41.4571u  
    5.48000     164.9051u      1.6490u    166.5541u     40.9827u  
    5.49000     165.2498u      1.6525u    166.9023u     40.5084u  
    5.50000     165.5945u      1.6559u    167.2504u     40.0340u  
    5.51000     165.9392u      1.6594u    167.5986u     39.5597u  
    5.52000     166.2839u      1.6628u    167.9467u     39.0855u  
    5.53000     166.6286u      1.6663u    168.2949u     38.6112u  
    5.54000     166.9733u      1.6697u    168.6431u     38.1370u  
    5.55000     167.3181u      1.6732u    168.9912u     37.6629u  
    5.56000     167.6628u      1.6766u    169.3394u     37.1887u  
    5.57000     168.0075u      1.6801u    169.6876u     36.7146u  
    5.58000     168.3522u      1.6835u    170.0358u     36.2406u  
    5.59000     168.6970u      1.6870u    170.3840u     35.7666u  
    5.60000     169.0417u      1.6904u    170.7321u     35.2926u  
    5.61000     169.3865u      1.6939u    171.0803u     34.8187u  
    5.62000     169.7312u      1.6973u    171.4285u     34.3448u  
    5.63000     170.0760u      1.7008u    171.7767u     33.8710u  
    5.64000     170.4207u      1.7042u    172.1249u     33.3973u  
    5.65000     170.7655u      1.7077u    172.4731u     32.9236u  
    5.66000     171.1103u      1.7111u    172.8214u     32.4500u  
    5.67000     171.4550u      1.7145u    173.1696u     31.9764u  
    5.68000     171.7998u      1.7180u    173.5178u     31.5029u  
    5.69000     172.1446u      1.7214u    173.8660u     31.0296u  
    5.70000     172.4894u      1.7249u    174.2142u     30.5562u  
    5.71000     172.8341u      1.7283u    174.5625u     30.0830u  
    5.72000     173.1789u      1.7318u    174.9107u     29.6099u  
    5.73000     173.5237u      1.7352u    175.2589u     29.1368u  
    5.74000     173.8685u      1.7387u    175.6072u     28.6638u  
    5.75000     174.2133u      1.7421u    175.9554u     28.1910u  
    5.76000     174.5581u      1.7456u    176.3037u     27.7182u  
    5.77000     174.9029u      1.7490u    176.6519u     27.2456u  
    5.78000     175.2477u      1.7525u    177.0002u     26.7731u  
    5.79000     175.5925u      1.7559u    177.3485u     26.3007u  
    5.80000     175.9374u      1.7594u    177.6967u     25.8284u  
    5.81000     176.2822u      1.7628u    178.0450u     25.3563u  
    5.82000     176.6270u      1.7663u    178.3933u     24.8843u  
    5.83000     176.9718u      1.7697u    178.7415u     24.4125u  
    5.84000     177.3167u      1.7732u    179.0898u     23.9408u  
    5.85000     177.6615u      1.7766u    179.4381u     23.4693u  
    5.86000     178.0063u      1.7801u    179.7864u     22.9980u  
    5.87000     178.3512u      1.7835u    180.1347u     22.5269u  
    5.88000     178.6960u      1.7870u    180.4830u     22.0559u  
    5.89000     179.0409u      1.7904u    180.8313u     21.5852u  
    5.90000     179.3857u      1.7939u    181.1796u     21.1146u  
    5.91000     179.7306u      1.7973u    181.5279u     20.6443u  
    5.92000     180.0754u      1.8008u    181.8762u     20.1742u  
    5.93000     180.4203u      1.8042u    182.2245u     19.7044u  
    5.94000     180.7652u      1.8076u    182.5728u     19.2348u  
    5.95000     181.1100u      1.8111u    182.9211u     18.7655u  
    5.96000     181.4549u      1.8145u    183.2694u     18.2965u  
    5.97000     181.7998u      1.8180u    183.6178u     17.8279u  
    5.98000     182.1447u      1.8214u    183.9661u     17.3595u  
    5.99000     182.4895u      1.8249u    184.3144u     16.8915u  
    6.00000     182.8344u      1.8283u    184.6628u     16.4238u  
y
x

        volt    current 2    current 3  
                    q3           q3     
    2.00000       1.7507u    176.8238u  
    2.01000       1.7507u    176.8228u  
    2.02000       1.7507u    176.8216u  
    2.03000       1.7507u    176.8203u  
    2.04000       1.7507u    176.8188u  
    2.05000       1.7507u    176.8171u  
    2.06000       1.7506u    176.8152u  
    2.07000       1.7506u    176.8130u  
    2.08000       1.7506u    176.8104u  
    2.09000       1.7506u    176.8076u  
    2.10000       1.7505u    176.8043u  
    2.11000       1.7505u    176.8005u  
    2.12000       1.7505u    176.7963u  
    2.13000       1.7504u    176.7914u  
    2.14000       1.7504u    176.7859u  
    2.15000       1.7503u    176.7796u  
    2.16000       1.7502u    176.7724u  
    2.17000       1.7501u    176.7642u  
    2.18000       1.7500u    176.7550u  
    2.19000       1.7499u    176.7444u  
    2.20000       1.7498u    176.7325u  
    2.21000       1.7497u    176.7189u  
    2.22000       1.7495u    176.7035u  
    2.23000       1.7494u    176.6861u  
    2.24000       1.7492u    176.6664u  
    2.25000       1.7489u    176.6442u  
    2.26000       1.7487u    176.6191u  
    2.27000       1.7484u    176.5908u  
    2.28000       1.7481u    176.5591u  
    2.29000       1.7478u    176.5234u  
    2.30000       1.7474u    176.4834u  
    2.31000       1.7469u    176.4388u  
    2.32000       1.7464u    176.3890u  
    2.33000       1.7459u    176.3336u  
    2.34000       1.7453u    176.2722u  
    2.35000       1.7446u    176.2043u  
    2.36000       1.7439u    176.1295u  
    2.37000       1.7430u    176.0473u  
    2.38000       1.7421u    175.9573u  
    2.39000       1.7412u    175.8590u  
    2.40000       1.7401u    175.7523u  
    2.41000       1.7390u    175.6366u  
    2.42000       1.7377u    175.5119u  
    2.43000       1.7364u    175.3777u  
    2.44000       1.7350u    175.2340u  
    2.45000       1.7335u    175.0806u  
    2.46000       1.7319u    174.9176u  
    2.47000       1.7301u    174.7448u  
    2.48000       1.7283u    174.5623u  
    2.49000       1.7264u    174.3702u  
    2.50000       1.7244u    174.1687u  
    2.51000       1.7224u    173.9579u  
    2.52000       1.7202u    173.7379u  
    2.53000       1.7179u    173.5091u  
    2.54000       1.7156u    173.2716u  
    2.55000       1.7131u    173.0258u  
    2.56000       1.7106u    172.7718u  
    2.57000       1.7080u    172.5100u  
    2.58000       1.7053u    172.2407u  
    2.59000       1.7026u    171.9641u  
    2.60000       1.6998u    171.6805u  
    2.61000       1.6969u    171.3902u  
    2.62000       1.6940u    171.0935u  
    2.63000       1.6910u    170.7906u  
    2.64000       1.6879u    170.4818u  
    2.65000       1.6848u    170.1674u  
    2.66000       1.6817u    169.8475u  
    2.67000       1.6784u    169.5225u  
    2.68000       1.6752u    169.1925u  
    2.69000       1.6719u    168.8578u  
    2.70000       1.6685u    168.5186u  
    2.71000       1.6651u    168.1750u  
    2.72000       1.6617u    167.8272u  
    2.73000       1.6582u    167.4755u  
    2.74000       1.6546u    167.1200u  
    2.75000       1.6511u    166.7608u  
    2.76000       1.6475u    166.3981u  
    2.77000       1.6439u    166.0321u  
    2.78000       1.6402u    165.6629u  
    2.79000       1.6365u    165.2906u  
    2.80000       1.6328u    164.9153u  
    2.81000       1.6291u    164.5372u  
    2.82000       1.6253u    164.1563u  
    2.83000       1.6215u    163.7729u  
    2.84000       1.6177u    163.3869u  
    2.85000       1.6138u    162.9985u  
    2.86000       1.6100u    162.6077u  
    2.87000       1.6061u    162.2147u  
    2.88000       1.6022u    161.8196u  
    2.89000       1.5982u    161.4223u  
    2.90000       1.5943u    161.0231u  
    2.91000       1.5903u    160.6219u  
    2.92000       1.5863u    160.2188u  
    2.93000       1.5823u    159.8139u  
    2.94000       1.5783u    159.4073u  
    2.95000       1.5742u    158.9990u  
    2.96000       1.5702u    158.5891u  
    2.97000       1.5661u    158.1776u  
    2.98000       1.5620u    157.7645u  
    2.99000       1.5579u    157.3500u  
    3.00000       1.5538u    156.9341u  
    3.01000       1.5497u    156.5168u  
    3.02000       1.5455u    156.0981u  
    3.03000       1.5414u    155.6782u  
    3.04000       1.5372u    155.2569u  
    3.05000       1.5330u    154.8345u  
    3.06000       1.5288u    154.4108u  
    3.07000       1.5246u    153.9861u  
    3.08000       1.5204u    153.5602u  
    3.09000       1.5162u    153.1332u  
    3.10000       1.5119u    152.7051u  
    3.11000       1.5077u    152.2760u  
    3.12000       1.5034u    151.8460u  
    3.13000       1.4992u    151.4149u  
    3.14000       1.4949u    150.9829u  
    3.15000       1.4906u    150.5500u  
    3.16000       1.4863u    150.1162u  
    3.17000       1.4820u    149.6815u  
    3.18000       1.4777u    149.2460u  
    3.19000       1.4734u    148.8097u  
    3.20000       1.4690u    148.3725u  
    3.21000       1.4647u    147.9346u  
    3.22000       1.4604u    147.4958u  
    3.23000       1.4560u    147.0564u  
    3.24000       1.4516u    146.6162u  
    3.25000       1.4473u    146.1753u  
    3.26000       1.4429u    145.7337u  
    3.27000       1.4385u    145.2914u  
    3.28000       1.4341u    144.8484u  
    3.29000       1.4297u    144.4048u  
    3.30000       1.4253u    143.9606u  
    3.31000       1.4209u    143.5158u  
    3.32000       1.4165u    143.0703u  
    3.33000       1.4121u    142.6242u  
    3.34000       1.4077u    142.1776u  
    3.35000       1.4033u    141.7304u  
    3.36000       1.3988u    141.2827u  
    3.37000       1.3944u    140.8344u  
    3.38000       1.3900u    140.3856u  
    3.39000       1.3855u    139.9362u  
    3.40000       1.3810u    139.4864u  
    3.41000       1.3766u    139.0360u  
    3.42000       1.3721u    138.5852u  
    3.43000       1.3677u    138.1338u  
    3.44000       1.3632u    137.6821u  
    3.45000       1.3587u    137.2298u  
    3.46000       1.3542u    136.7771u  
    3.47000       1.3497u    136.3240u  
    3.48000       1.3452u    135.8704u  
    3.49000       1.3408u    135.4164u  
    3.50000       1.3363u    134.9620u  
    3.51000       1.3317u    134.5071u  
    3.52000       1.3272u    134.0519u  
    3.53000       1.3227u    133.5963u  
    3.54000       1.3182u    133.1403u  
    3.55000       1.3137u    132.6839u  
    3.56000       1.3092u    132.2271u  
    3.57000       1.3046u    131.7700u  
    3.58000       1.3001u    131.3125u  
    3.59000       1.2956u    130.8546u  
    3.60000       1.2910u    130.3964u  
    3.61000       1.2865u    129.9379u  
    3.62000       1.2820u    129.4790u  
    3.63000       1.2774u    129.0199u  
    3.64000       1.2729u    128.5603u  
    3.65000       1.2683u    128.1005u  
    3.66000       1.2638u    127.6403u  
    3.67000       1.2592u    127.1799u  
    3.68000       1.2546u    126.7191u  
    3.69000       1.2501u    126.2581u  
    3.70000       1.2455u    125.7967u  
    3.71000       1.2409u    125.3351u  
    3.72000       1.2364u    124.8731u  
    3.73000       1.2318u    124.4109u  
    3.74000       1.2272u    123.9485u  
    3.75000       1.2226u    123.4857u  
    3.76000       1.2180u    123.0227u  
    3.77000       1.2135u    122.5594u  
    3.78000       1.2089u    122.0959u  
    3.79000       1.2043u    121.6321u  
    3.80000       1.1997u    121.1681u  
    3.81000       1.1951u    120.7038u  
    3.82000       1.1905u    120.2393u  
    3.83000       1.1859u    119.7745u  
    3.84000       1.1813u    119.3096u  
    3.85000       1.1767u    118.8443u  
    3.86000       1.1721u    118.3789u  
    3.87000       1.1675u    117.9132u  
    3.88000       1.1628u    117.4473u  
    3.89000       1.1582u    116.9812u  
    3.90000       1.1536u    116.5149u  
    3.91000       1.1490u    116.0483u  
    3.92000       1.1444u    115.5816u  
    3.93000       1.1397u    115.1146u  
    3.94000       1.1351u    114.6475u  
    3.95000       1.1305u    114.1801u  
    3.96000       1.1259u    113.7126u  
    3.97000       1.1212u    113.2448u  
    3.98000       1.1166u    112.7769u  
    3.99000       1.1120u    112.3088u  
    4.00000       1.1073u    111.8405u  
    4.01000       1.1027u    111.3720u  
    4.02000       1.0980u    110.9033u  
    4.03000       1.0934u    110.4344u  
    4.04000       1.0888u    109.9654u  
    4.05000       1.0841u    109.4962u  
    4.06000       1.0795u    109.0268u  
    4.07000       1.0748u    108.5573u  
    4.08000       1.0702u    108.0876u  
    4.09000       1.0655u    107.6177u  
    4.10000       1.0609u    107.1477u  
    4.11000       1.0562u    106.6775u  
    4.12000       1.0516u    106.2071u  
    4.13000       1.0469u    105.7366u  
    4.14000       1.0422u    105.2660u  
    4.15000       1.0376u    104.7952u  
    4.16000       1.0329u    104.3242u  
    4.17000       1.0282u    103.8531u  
    4.18000       1.0236u    103.3818u  
    4.19000       1.0189u    102.9104u  
    4.20000       1.0142u    102.4389u  
    4.21000       1.0096u    101.9672u  
    4.22000       1.0049u    101.4954u  
    4.23000       1.0002u    101.0234u  
    4.24000     995.5522n    100.5513u  
    4.25000     990.8768n    100.0791u  
    4.26000     986.2000n     99.6068u  
    4.27000     981.5219n     99.1343u  
    4.28000     976.8426n     98.6617u  
    4.29000     972.1620n     98.1889u  
    4.30000     967.4802n     97.7161u  
    4.31000     962.7972n     97.2431u  
    4.32000     958.1130n     96.7700u  
    4.33000     953.4275n     96.2968u  
    4.34000     948.7410n     95.8234u  
    4.35000     944.0532n     95.3500u  
    4.36000     939.3643n     94.8764u  
    4.37000     934.6743n     94.4027u  
    4.38000     929.9832n     93.9289u  
    4.39000     925.2910n     93.4550u  
    4.40000     920.5977n     92.9810u  
    4.41000     915.9033n     92.5068u  
    4.42000     911.2079n     92.0326u  
    4.43000     906.5115n     91.5582u  
    4.44000     901.8140n     91.0838u  
    4.45000     897.1155n     90.6092u  
    4.46000     892.4159n     90.1346u  
    4.47000     887.7154n     89.6598u  
    4.48000     883.0140n     89.1850u  
    4.49000     878.3115n     88.7101u  
    4.50000     873.6081n     88.2350u  
    4.51000     868.9038n     87.7599u  
    4.52000     864.1985n     87.2846u  
    4.53000     859.4924n     86.8093u  
    4.54000     854.7853n     86.3339u  
    4.55000     850.0773n     85.8584u  
    4.56000     845.3685n     85.3828u  
    4.57000     840.6588n     84.9071u  
    4.58000     835.9482n     84.4314u  
    4.59000     831.2368n     83.9555u  
    4.60000     826.5246n     83.4796u  
    4.61000     821.8115n     83.0036u  
    4.62000     817.0976n     82.5275u  
    4.63000     812.3830n     82.0513u  
    4.64000     807.6675n     81.5750u  
    4.65000     802.9513n     81.0987u  
    4.66000     798.2343n     80.6223u  
    4.67000     793.5165n     80.1458u  
    4.68000     788.7980n     79.6692u  
    4.69000     784.0788n     79.1926u  
    4.70000     779.3588n     78.7159u  
    4.71000     774.6382n     78.2391u  
    4.72000     769.9168n     77.7622u  
    4.73000     765.1947n     77.2853u  
    4.74000     760.4720n     76.8083u  
    4.75000     755.7486n     76.3312u  
    4.76000     751.0245n     75.8541u  
    4.77000     746.2998n     75.3769u  
    4.78000     741.5744n     74.8996u  
    4.79000     736.8484n     74.4223u  
    4.80000     732.1218n     73.9449u  
    4.81000     727.3946n     73.4675u  
    4.82000     722.6668n     72.9900u  
    4.83000     717.9384n     72.5124u  
    4.84000     713.2094n     72.0348u  
    4.85000     708.4798n     71.5571u  
    4.86000     703.7497n     71.0793u  
    4.87000     699.0190n     70.6016u  
    4.88000     694.2878n     70.1237u  
    4.89000     689.5561n     69.6458u  
    4.90000     684.8238n     69.1678u  
    4.91000     680.0911n     68.6898u  
    4.92000     675.3578n     68.2118u  
    4.93000     670.6240n     67.7337u  
    4.94000     665.8898n     67.2555u  
    4.95000     661.1550n     66.7773u  
    4.96000     656.4199n     66.2990u  
    4.97000     651.6842n     65.8207u  
    4.98000     646.9482n     65.3424u  
    4.99000     642.2117n     64.8640u  
    5.00000     637.4747n     64.3856u  
    5.01000     632.7374n     63.9071u  
    5.02000     627.9997n     63.4286u  
    5.03000     623.2615n     62.9501u  
    5.04000     618.5230n     62.4715u  
    5.05000     613.7841n     61.9928u  
    5.06000     609.0449n     61.5142u  
    5.07000     604.3053n     61.0355u  
    5.08000     599.5654n     60.5568u  
    5.09000     594.8251n     60.0780u  
    5.10000     590.0845n     59.5992u  
    5.11000     585.3436n     59.1204u  
    5.12000     580.6024n     58.6415u  
    5.13000     575.8609n     58.1626u  
    5.14000     571.1192n     57.6837u  
    5.15000     566.3771n     57.2047u  
    5.16000     561.6348n     56.7258u  
    5.17000     556.8923n     56.2468u  
    5.18000     552.1496n     55.7678u  
    5.19000     547.4066n     55.2887u  
    5.20000     542.6634n     54.8097u  
    5.21000     537.9200n     54.3306u  
    5.22000     533.1764n     53.8515u  
    5.23000     528.4326n     53.3724u  
    5.24000     523.6887n     52.8932u  
    5.25000     518.9446n     52.4141u  
    5.26000     514.2004n     51.9349u  
    5.27000     509.4561n     51.4557u  
    5.28000     504.7116n     50.9765u  
    5.29000     499.9671n     50.4973u  
    5.30000     495.2224n     50.0181u  
    5.31000     490.4777n     49.5389u  
    5.32000     485.7329n     49.0597u  
    5.33000     480.9881n     48.5805u  
    5.34000     476.2433n     48.1012u  
    5.35000     471.4984n     47.6220u  
    5.36000     466.7535n     47.1428u  
    5.37000     462.0086n     46.6636u  
    5.38000     457.2638n     46.1843u  
    5.39000     452.5190n     45.7051u  
    5.40000     447.7742n     45.2259u  
    5.41000     443.0295n     44.7467u  
    5.42000     438.2849n     44.2675u  
    5.43000     433.5405n     43.7883u  
    5.44000     428.7961n     43.3091u  
    5.45000     424.0519n     42.8299u  
    5.46000     419.3078n     42.3508u  
    5.47000     414.5639n     41.8716u  
    5.48000     409.8202n     41.3925u  
    5.49000     405.0768n     40.9134u  
    5.50000     400.3335n     40.4344u  
    5.51000     395.5905n     39.9553u  
    5.52000     390.8478n     39.4763u  
    5.53000     386.1054n     38.9973u  
    5.54000     381.3633n     38.5184u  
    5.55000     376.6216n     38.0395u  
    5.56000     371.8802n     37.5606u  
    5.57000     367.1393n     37.0818u  
    5.58000     362.3987n     36.6030u  
    5.59000     357.6586n     36.1242u  
    5.60000     352.9189n     35.6455u  
    5.61000     348.1798n     35.1669u  
    5.62000     343.4412n     34.6883u  
    5.63000     338.7031n     34.2097u  
    5.64000     333.9657n     33.7312u  
    5.65000     329.2288n     33.2528u  
    5.66000     324.4926n     32.7745u  
    5.67000     319.7571n     32.2962u  
    5.68000     315.0224n     31.8180u  
    5.69000     310.2884n     31.3398u  
    5.70000     305.5552n     30.8618u  
    5.71000     300.8228n     30.3838u  
    5.72000     296.0913n     29.9059u  
    5.73000     291.3608n     29.4282u  
    5.74000     286.6312n     28.9505u  
    5.75000     281.9027n     28.4729u  
    5.76000     277.1752n     27.9954u  
    5.77000     272.4489n     27.5181u  
    5.78000     267.7238n     27.0408u  
    5.79000     262.9998n     26.5637u  
    5.80000     258.2772n     26.0867u  
    5.81000     253.5560n     25.6099u  
    5.82000     248.8362n     25.1332u  
    5.83000     244.1179n     24.6566u  
    5.84000     239.4012n     24.1802u  
    5.85000     234.6861n     23.7040u  
    5.86000     229.9728n     23.2280u  
    5.87000     225.2614n     22.7521u  
    5.88000     220.5518n     22.2765u  
    5.89000     215.8443n     21.8010u  
    5.90000     211.1389n     21.3258u  
    5.91000     206.4357n     20.8507u  
    5.92000     201.7349n     20.3760u  
    5.93000     197.0366n     19.9014u  
    5.94000     192.3409n     19.4272u  
    5.95000     187.6480n     18.9532u  
    5.96000     182.9580n     18.4795u  
    5.97000     178.2712n     18.0061u  
    5.98000     173.5875n     17.5331u  
    5.99000     168.9074n     17.0604u  
    6.00000     164.2309n     16.5881u  
y
1****** HSPICE -- D-2010.03-SP1 32-BIT (May 26 2010) winnt ******               
 ******  
 * bjt amplifier circuit

  ******  operating point information tnom=  25.000 temp=  25.000 *****
 ***** operating point status is all       simulation time is     0.     
    node    =voltage      node    =voltage      node    =voltage

 +0:101     =   9.0000  0:102     =   5.0000  0:103     =   1.4789 
 +0:104     =   3.6830  0:105     = 396.5005m 0:106     =   8.3625 
 +0:107     = 643.8559m 0:108     =   7.5164  0:109     =   2.1811 
 +0:110     =   1.1059  0:111     =   1.3244 


 ****  voltage sources

 subckt                        
 element  0:vcc      0:vbb     
  volts      9.0000     5.0000 
  current -409.0379u   -1.4836u
  power      3.6813m    7.4182u

     total voltage source power dissipation=    3.6888m       watts



 **** resistors

 subckt                                                                    
 element  0:r1       0:r2       0:r3       0:r4       0:r5       0:r6      
  r value   10.0000k   27.0000k    2.0000k   10.0000k   10.0000k   10.0000k
  v drop     1.4789     5.3170   396.5005m  637.4812m  643.8559m    1.4836 
  current  147.8857u  196.9249u  198.2503u   63.7481u   64.3856u  148.3649u
  power    218.7017u    1.0470m   78.6063u   40.6382u   41.4550u  220.1214u

 subckt                                   
 element  0:rb1      0:rb2      0:rb3     
  r value    1.9000x  190.0000k    3.7000x
  v drop     2.8189   372.9457m    2.3587 
  current    1.4836u    1.9629u  637.4747n
  power      4.1823u  732.0446n    1.5036u


 **** bipolar junction transistors


 subckt                                   
 element  0:q1       0:q2       0:q3      
 model    0:mod1     0:mod1     0:mod1    
  ib         1.4836u    1.9629u  637.4811n
  ic       148.3649u  196.2874u   63.7481u
  vbe      702.2192m  709.4105m  680.5164m
  vce        6.0375     3.2865     7.7187 
  vbc       -5.3353    -2.5771    -7.0381 
  vs        -7.5164    -3.6830    -8.3625 
  power    896.7940u  646.4965u  492.4840u
  betad    100.0000   100.0000   100.0000 
  gm         5.7748m    7.6401m    2.4813m
  rpi       17.3167k   13.0889k   40.3021k
  rx         0.         0.         0.     
  ro       2.667e+16  1.288e+16  3.519e+16
  cpi       13.0898p   13.1214p   12.9943p
  cmu        2.5057p    3.0581p    2.3098p
  cbx        0.         0.         0.     
  ccs        0.         0.         0.     
  betaac   100.0000   100.0000   100.0000 
  ft        58.9329x   75.1538x   25.8040x




          ***** job concluded
1****** HSPICE -- D-2010.03-SP1 32-BIT (May 26 2010) winnt ******               
 ******  
 * bjt amplifier circuit

  ******  job statistics summary tnom=  25.000 temp=  25.000 *****

  ******  HSPICE Threads Information  ******

  Command Line Threads Count                  :     1
  Available CPU Count                         :    12
  Actual Model Evaluation(Load) Threads Count :     1
  Actual Solver Threads Count                 :     1


  ******  Circuit Statistics  ******
  # nodes       =      18 # elements   =      20
  # resistors   =       9 # capacitors =       0 # inductors   =       0
  # mutual_inds =       0 # vccs       =       0 # vcvs        =       0
  # cccs        =       0 # ccvs       =       0 # volt_srcs   =       8
  # curr_srcs   =       0 # diodes     =       0 # bjts        =       3
  # jfets       =       0 # mosfets    =       0 # U elements  =       0
  # T elements  =       0 # W elements =       0 # B elements  =       0
  # S elements  =       0 # P elements =       0 # va device   =       0


  ******  Runtime Statistics (seconds)  ******

  analysis           time    # points   tot. iter  conv.iter
  op point           0.02           1          11
  dc sweep           0.02         401         812
  readin             0.22
  errchk             0.04
  setup              0.06
  output             0.00


           total memory used          178  kbytes
           total cpu time            0.44 seconds
           total elapsed time        0.75 seconds
           job started at     21:28:53 06/03/2012
           job ended   at     21:28:54 06/03/2012


  lic: Release hspice token(s) 
