 ****** HSPICE -- D-2010.03-SP1 32-BIT (May 26 2010) winnt ******               
  Copyright (C) 2010 Synopsys, Inc. All Rights Reserved.                        
  Unpublished-rights reserved under US copyright laws.
  This program is protected by law and is subject to the 
  terms and conditions of the license agreement from Synopsys.
  Use of this program is your acceptance to be bound by the 
  license agreement. HSPICE is the trademark of Synopsys, Inc.
  Input File: d:\synopsys\hspice\trytry\bjtamplifiertrans.sp                    
  lic:  
  lic: FLEXlm: v8.5b 
  lic: USER:   zrc                  HOSTNAME: LAPTOP-O4SR7NUK 
  lic: HOSTID: "005056c00001 00ffd46088fe a87eea1f533c 005056c00008 a87eea1f5338
  
  lic: Using FLEXlm license file: 
  lic: C:\flexlm\hspice.dat 
  lic: Checkout 1 hspice 
  lic: License/Maintenance for hspice will expire on 31-dec-2020/2007.9 
  lic: NODE LOCKED license on hostid "005056c00001 00ffd46088fe a87eea1f533c 005
 0
  lic:   
 Init: read install configuration file: D:\synopsys\Hspice_D-2010.03-SP1\meta.cfg
 **warning** (d:\synopsys\hspice\trytry\bjtamplifiertrans.sp:2) nonstandard number 1e-9s is interpreted as 1e-009
 **warning** (d:\synopsys\hspice\trytry\bjtamplifiertrans.sp:2) nonstandard number 1e-6s is interpreted as 1e-006
 scientific notation:
 a=10**-18  f=10**-15  p=10**-12  n=10**-9  u=10**-6
 m=10**-3   k=10**3    x=10**6    g=10**9 


 circuit parameter definitions
  parameter          =  value 





 constants  - tnom         kt           vt           gapsi        ni
            298.15000    4.1163e-21    25.69184m     1.11562    1.2565e+16 
1****** HSPICE -- D-2010.03-SP1 32-BIT (May 26 2010) winnt ******               
 ******  
 * bjt amplifier circuit

  ******  bjt   model parameters tnom=  25.000 temp=  25.000 *****

 ************************************************************************
 *** bjt model parameters   model name:   0:mod1     model type:npn   ***
 ************************************************************************

     names  values   units     names  values   units     names  values   units
     -----  ------   -----     -----  ------   -----     -----  ------   -----

   1*** basic dc parameters ***
    level=   1.00                bf= 100.00                br=   1.00         
      brs=   0.                bulk=  gnd                  is= 2.0e-16 amps   
      iss=   0.    amps          nf=   1.00                nr=   1.00         
       ns=   1.00               ibe=   0.    amps         ibc=   0.    amps   
     subs=   1.00             expli=   0.    amps   

   2*** low current beta degradation effect parameters ***
      isc=   0.    amps         ise=   0.    amps          nc=   2.00         
       ne=   1.50         

   3*** base width modulation parameters ***
      vaf=   0.    volts        var=   0.    volts  

   4*** high current beta degradation effect parameters ***
      ikf=   0.    amps         nkf= 500.00m              ikr=   0.    amps   

   5*** parasitic resistor parameters ***
      irb=   0.    amps          rb=   0.    ohms         rbm=   0.    ohms   
       re=   0.    ohms          rc=   0.    ohms         rcc=   0.    ohms   
       vo=   0.    volts      gamma=   0.           

   6*** junction capacitor parameters ***
     cbcp=   0.    farad       cbep=   0.    farad       ccsp=   0.    farad  
      cjc=   5.00p farad        cje=  10.00p farad        cjs=   0.    farad  
       fc= 500.00m              mjc= 330.00m              mje= 330.00m        
      mjs= 500.00m              vjc= 750.00m volts        vje= 750.00m volts  
      vjs= 750.00m volts       xcjc=   1.00               qco=   0.    coul   

   7*** transit time parameters ***
      itf=   0.    amps         ptf=   0.    deg k         tf=   0.    secs   
       tr=   0.    secs         vtf=   0.                 xtf=   0.           

   8*** temperature compensation parameters ***
     tlev=   0.               tlevc=   0.                tre1=   0.    /deg   
     tre2=   0.    /deg2       trb1=   0.    /deg        trc1=   0.    /deg   
     trb2=   0.    /deg2       trm1=   0.    /deg         xtb=   0.           
     trm2=   0.    /deg2        xti=   3.00               cte=   0.    /deg   
      ctc=   0.    /deg         cts=   0.    /deg        trc2=   0.    /deg2  
     tref=  25.00   deg c       bex=   2.42              bexv=   1.90         

   9*** noise parameters ***
       kf=   0.                  af=   1.00         
  **info** (d:\synopsys\hspice\trytry\bjtamplifiertrans.sp:8) DC voltage reset to initial transient source value              in source        0:vbb                 new dc=  0.1500D+01
1****** HSPICE -- D-2010.03-SP1 32-BIT (May 26 2010) winnt ******               
 ******  
 * bjt amplifier circuit

  ******  circuit element summary tnom=  25.000 temp=  25.000 *****


 **** resistors

  
 
                                                              
 element name        0:r1       0:r2       0:r3       0:r4    
 node1               0:103      0:101      0:105      0:101   
 node2               0:0        0:104      0:0        0:106   
 model                                                        
 res eff            10.0000k   27.0000k    2.0000k   10.0000k 
 tc1                 0.         0.         0.         0.      
 tc2                 0.         0.         0.         0.      
 scale               1.0000     1.0000     1.0000     1.0000  
 m                   1.0000     1.0000     1.0000     1.0000  
 ac                 10.0000k   27.0000k    2.0000k   10.0000k 
 temp               25.0000    25.0000    25.0000    25.0000  
 l                   0.         0.         0.         0.      
 w                   0.         0.         0.         0.      
 cap                 0.         0.         0.         0.      
 noise            1.000e+00  1.000e+00  1.000e+00  1.000e+00  
  
 
                                                              
 element name        0:r5       0:r6       0:rb1      0:rb2   
 node1               0:107      0:101      0:102      0:103   
 node2               0:0        0:108      0:109      0:110   
 model                                                        
 res eff            10.0000k   10.0000k    1.9000x  190.0000k 
 tc1                 0.         0.         0.         0.      
 tc2                 0.         0.         0.         0.      
 scale               1.0000     1.0000     1.0000     1.0000  
 m                   1.0000     1.0000     1.0000     1.0000  
 ac                 10.0000k   10.0000k    1.9000x  190.0000k 
 temp               25.0000    25.0000    25.0000    25.0000  
 l                   0.         0.         0.         0.      
 w                   0.         0.         0.         0.      
 cap                 0.         0.         0.         0.      
 noise            1.000e+00  1.000e+00  1.000e+00  1.000e+00  
  
 
                             
 element name        0:rb3   
 node1               0:104   
 node2               0:111   
 model                       
 res eff             3.7000x 
 tc1                 0.      
 tc2                 0.      
 scale               1.0000  
 m                   1.0000  
 ac                  3.7000x 
 temp               25.0000  
 l                   0.      
 w                   0.      
 cap                 0.      
 noise            1.000e+00  


 **** independent sources

     name         node1        node2      dc volt    ac mag    ac phase    type
  vcc  101               0                    9.0000     0.         0.      dc   
  vbb  102               0                    1.5000     0.         0.      sin  
             offset.......     1.5000 
             amplitude....   500.0000m
             frequency....    10.0000x
             delay........     0.     
             theta........     0.     
             phase........     0.     



 **** bipolar junction transistors

  
 
                                                
 element name        0:q1      0:q2      0:q3   
 collector           0:108     0:104     0:106  
 base                0:109     0:110     0:111  
 emitter             0:103     0:105     0:107  
 bulk                0:0       0:0       0:0    
 model               0:mod1    0:mod1    0:mod1 
 area                1.0000    1.0000    1.0000 
 
1****** HSPICE -- D-2010.03-SP1 32-BIT (May 26 2010) winnt ******               
 ******  
 * bjt amplifier circuit

  ******  element node table
                                                                                      
 0                r1               r3               r5               vcc              
                  vbb              q1:s             q2:s             q3:s             
 101              r2               r4               r6               vcc              
 102              rb1              vbb                                                
 103              r1               rb2              q1:e                              
 104              r2               rb3              q2:c                              
 105              r3               q2:e                                               
 106              r4               q3:c                                               
 107              r5               q3:e                                               
 108              r6               q1:c                                               
 109              rb1              q1:b                                               
 110              rb2              q2:b                                               
 111              rb3              q3:b                                               
 *****************************************************************
 ******  option summary
 ******
 runlvl  = 3         bypass  = 2         
1****** HSPICE -- D-2010.03-SP1 32-BIT (May 26 2010) winnt ******               
 ******  
 * bjt amplifier circuit

  ******  operating point information tnom=  25.000 temp=  25.000 *****
 ***** operating point status is all       simulation time is     0.     
    node    =voltage      node    =voltage      node    =voltage

 +0:101     =   9.0000  0:102     =   1.5000  0:103     = 291.4966m
 +0:104     =   8.9527  0:105     =  34.7700n 0:106     =   7.2492 
 +0:107     =   1.7683  0:108     =   8.7114  0:109     = 951.6536m
 +0:110     = 291.4982m 0:111     =   2.4748 


 ****  voltage sources

 subckt                        
 element  0:vcc      0:vbb     
  volts      9.0000     1.5000 
  current -205.6919u -288.6033n
  power      1.8512m  432.9050n

     total voltage source power dissipation=    1.8517m       watts



 **** resistors

 subckt                                                                    
 element  0:r1       0:r2       0:r3       0:r4       0:r5       0:r6      
  r value   10.0000k   27.0000k    2.0000k   10.0000k   10.0000k   10.0000k
  v drop   291.4966m   47.2722m   34.7700n    1.7508     1.7683   288.6105m
  current   29.1497u    1.7508u   17.3850p  175.0800u  176.8308u   28.8611u
  power      8.4970u   82.7652n  6.045e-19  306.5302u  312.6915u    8.3296u

 subckt                                   
 element  0:rb1      0:rb2      0:rb3     
  r value    1.9000x  190.0000k    3.7000x
  v drop   548.3464m   -1.5581u    6.4779 
  current  288.6033n   -8.2007p    1.7508u
  power    158.2546n   12.7778a   11.3416u


 **** bipolar junction transistors


 subckt                                   
 element  0:q1       0:q2       0:q3      
 model    0:mod1     0:mod1     0:mod1    
  ib       288.6104n  169.0406f    1.7508u
  ic        28.8610u   16.9245p  175.0800u
  vbe      660.1570m  291.4982m  706.4730m
  vce        8.4199     8.9527     5.4809 
  vbc       -7.7597    -8.6612    -4.7744 
  vs        -8.7114    -8.9527    -7.2492 
  power    243.1974u  151.5694p  960.8315u
  betad    100.0000   100.1207   100.0000 
  gm         1.1234m  658.7406p    6.8146m
  rpi       89.0191k  151.8048g   14.6743k
  rx         0.         0.         0.     
  ro       3.879e+16  4.330e+16  2.387e+16
  cpi       12.9047p   11.2826p   13.1085p
  cmu        2.2432p    2.1699p    2.5869p
  cbx        0.         0.         0.     
  ccs        0.         0.         0.     
  betaac   100.0000   100.0000   100.0000 
  ft        11.8028x    7.7935    69.1017x



 ******  
 * bjt amplifier circuit

  ******  transient analysis tnom=  25.000 temp=  25.000 *****
x

        time    current 1    current 2    current 3    current 1  
                    q1           q1           q1           q2     
    0.           28.8611u    288.6033n     29.1497u     25.5857p  
    1.00000n     28.8531u    305.0797n     29.1582u     -4.6196p  
    2.00000n     28.8455u    321.3980n     29.1669u    -36.5831p  
    3.00000n     28.8379u    337.6539n     29.1756u    -69.1343p  
    4.00000n     28.8307u    353.6368n     29.1843u   -102.7886p  
    5.00000n     28.8252u    367.9425n     29.1932u   -143.2185p  
    6.00000n     28.8197u    382.2482n     29.2020u   -183.6485p  
    7.00000n     28.8142u    396.5538n     29.2108u   -224.0784p  
    8.00000n     28.8088u    410.8595n     29.2196u   -264.5083p  
    9.00000n     28.8033u    425.1651n     29.2285u   -304.9382p  
   10.00000n     28.7978u    439.4708n     29.2373u   -345.3682p  
   11.00000n     28.7923u    453.7765n     29.2461u   -385.7981p  
   12.00000n     28.7868u    468.0821n     29.2549u   -426.2280p  
   13.00000n     28.7840u    479.1166n     29.2631u   -472.4185p  
   14.00000n     28.7813u    489.9716n     29.2713u   -518.9250p  
   15.00000n     28.7786u    500.8266n     29.2795u   -565.4315p  
   16.00000n     28.7785u    508.3955n     29.2869u   -573.4303p  
   17.00000n     28.7785u    515.9644n     29.2944u   -581.4290p  
   18.00000n     28.7784u    523.5334n     29.3019u   -589.4278p  
   19.00000n     28.7783u    531.1023n     29.3094u   -597.4266p  
   20.00000n     28.7789u    537.2896n     29.3162u   -612.0371p  
   21.00000n     28.7815u    539.9797n     29.3215u   -643.3823p  
   22.00000n     28.7840u    542.6699n     29.3267u   -674.7276p  
   23.00000n     28.7865u    545.3600n     29.3319u   -706.0728p  
   24.00000n     28.7891u    548.0501n     29.3371u   -737.4180p  
   25.00000n     28.7916u    550.7403n     29.3423u   -768.7632p  
   26.00000n     28.7970u    548.1480n     29.3451u   -815.4696p  
   27.00000n     28.8023u    545.5558n     29.3479u   -862.1760p  
   28.00000n     28.8077u    542.9635n     29.3507u   -908.8824p  
   29.00000n     28.8131u    540.3713n     29.3534u   -955.5888p  
   30.00000n     28.8184u    537.7790n     29.3562u     -1.0023n  
   31.00000n     28.8260u    530.3008n     29.3563u   -972.7150p  
   32.00000n     28.8336u    522.8225n     29.3564u   -943.1348p  
   33.00000n     28.8412u    515.3442n     29.3566u   -913.5546p  
   34.00000n     28.8488u    507.8660n     29.3567u   -883.9744p  
   35.00000n     28.8564u    500.3877n     29.3568u   -854.3942p  
   36.00000n     28.8650u    487.9496n     29.3529u   -851.5086p  
   37.00000n     28.8736u    475.5116n     29.3491u   -848.6229p  
   38.00000n     28.8822u    463.0736n     29.3452u   -845.7372p  
   39.00000n     28.8908u    450.6355n     29.3414u   -842.8516p  
   40.00000n     28.8993u    438.1975n     29.3375u   -839.9659p  
   41.00000n     28.9079u    425.7594n     29.3337u   -837.0803p  
   42.00000n     28.9165u    413.3214n     29.3298u   -834.1946p  
   43.00000n     28.9256u    399.1867n     29.3248u   -834.1139p  
   44.00000n     28.9351u    383.3553n     29.3184u   -836.8382p  
   45.00000n     28.9446u    367.5240n     29.3121u   -839.5625p  
   46.00000n     28.9540u    351.6927n     29.3057u   -842.2868p  
   47.00000n     28.9635u    335.8613n     29.2994u   -845.0111p  
   48.00000n     28.9730u    320.0300n     29.2931u   -847.7353p  
   49.00000n     28.9825u    304.1986n     29.2867u   -850.4596p  
   50.00000n     28.9916u    287.8774n     29.2795u   -847.2684p  
   51.00000n     29.0002u    271.3992n     29.2716u   -841.9107p  
   52.00000n     29.0085u    255.1923n     29.2637u   -776.0214p  
   53.00000n     29.0168u    239.0492n     29.2558u   -695.9053p  
   54.00000n     29.0250u    222.9060n     29.2479u   -615.7892p  
   55.00000n     29.0333u    206.7650n     29.2401u   -535.7097p  
   56.00000n     29.0381u    193.6513n     29.2317u   -506.3378p  
   57.00000n     29.0429u    180.5375n     29.2234u   -476.9658p  
   58.00000n     29.0477u    167.4238n     29.2151u   -447.5939p  
   59.00000n     29.0525u    154.3101n     29.2068u   -418.2219p  
   60.00000n     29.0573u    141.1963n     29.1985u   -388.8499p  
   61.00000n     29.0621u    128.0826n     29.1901u   -359.4780p  
   62.00000n     29.0669u    114.9689n     29.1818u   -330.1060p  
   63.00000n     29.0717u    101.8551n     29.1735u   -300.7341p  
   64.00000n     29.0764u     88.7414n     29.1652u   -271.3621p  
   65.00000n     29.0812u     75.6277n     29.1569u   -241.9901p  
   66.00000n     29.0813u     68.1921n     29.1495u   -203.0353p  
   67.00000n     29.0813u     60.7566n     29.1421u   -164.0805p  
   68.00000n     29.0814u     53.3210n     29.1347u   -125.1257p  
   69.00000n     29.0815u     45.8854n     29.1273u    -86.1708p  
   70.00000n     29.0815u     38.4499n     29.1200u    -47.2160p  
   71.00000n     29.0789u     35.9027n     29.1148u     -9.5095p  
   72.00000n     29.0764u     33.3555n     29.1097u     28.1969p  
   73.00000n     29.0738u     30.8082n     29.1046u     65.9034p  
   74.00000n     29.0712u     28.2610n     29.0995u    103.6099p  
   75.00000n     29.0686u     25.7138n     29.0943u    141.3164p  
   76.00000n     29.0633u     28.3061n     29.0916u    180.6652p  
   77.00000n     29.0579u     30.8984n     29.0888u    220.0141p  
   78.00000n     29.0525u     33.4907n     29.0860u    259.3629p  
   79.00000n     29.0472u     36.0830n     29.0833u    298.7118p  
   80.00000n     29.0418u     38.6753n     29.0805u    338.0607p  
   81.00000n     29.0342u     46.1537n     29.0804u    369.9336p  
   82.00000n     29.0266u     53.6321n     29.0803u    401.8065p  
   83.00000n     29.0190u     61.1105n     29.0801u    433.6794p  
   84.00000n     29.0114u     68.5889n     29.0800u    465.5523p  
   85.00000n     29.0038u     76.0673n     29.0799u    497.4252p  
   86.00000n     28.9952u     88.5055n     29.0837u    428.3077p  
   87.00000n     28.9866u    100.9436n     29.0875u    359.1902p  
   88.00000n     28.9780u    113.3818n     29.0914u    290.0728p  
   89.00000n     28.9694u    125.8200n     29.0952u    220.9553p  
   90.00000n     28.9608u    138.2581n     29.0990u    151.8378p  
   91.00000n     28.9521u    150.6963n     29.1028u     82.7203p  
   92.00000n     28.9435u    163.1345n     29.1067u     13.6029p  
   93.00000n     28.9344u    177.2693n     29.1117u    -29.2232p  
   94.00000n     28.9249u    193.1008n     29.1180u    -45.7577p  
   95.00000n     28.9154u    208.9323n     29.1243u    -62.2923p  
   96.00000n     28.9059u    224.7638n     29.1306u    -78.8269p  
   97.00000n     28.8963u    240.5953n     29.1369u    -95.3614p  
   98.00000n     28.8868u    256.4268n     29.1432u   -111.8960p  
   99.00000n     28.8773u    272.2582n     29.1496u   -128.4306p  
  100.00000n     28.8682u    288.5796n     29.1567u   -145.9538p  
  101.00000n     28.8595u    305.0580n     29.1646u   -163.7588p  
  102.00000n     28.8512u    321.2651n     29.1725u   -182.9312p  
  103.00000n     28.8429u    337.4085n     29.1803u   -202.4250p  
  104.00000n     28.8346u    353.5519n     29.1882u   -221.9187p  
  105.00000n     28.8264u    369.6932n     29.1960u   -241.4199p  
  106.00000n     28.8215u    382.8071n     29.2043u   -271.2054p  
  107.00000n     28.8167u    395.9210n     29.2126u   -300.9909p  
  108.00000n     28.8118u    409.0349n     29.2209u   -330.7764p  
  109.00000n     28.8070u    422.1489n     29.2292u   -360.5619p  
  110.00000n     28.8022u    435.2628n     29.2374u   -390.3474p  
  111.00000n     28.7973u    448.3767n     29.2457u   -420.1329p  
  112.00000n     28.7925u    461.4907n     29.2540u   -449.9183p  
  113.00000n     28.7877u    474.6046n     29.2623u   -479.7038p  
  114.00000n     28.7828u    487.7185n     29.2706u   -509.4893p  
  115.00000n     28.7780u    500.8324n     29.2788u   -539.2748p  
  116.00000n     28.7779u    508.2682n     29.2862u   -585.5962p  
  117.00000n     28.7778u    515.7039n     29.2935u   -631.9176p  
  118.00000n     28.7777u    523.1397n     29.3008u   -678.2390p  
  119.00000n     28.7776u    530.5754n     29.3082u   -724.5603p  
  120.00000n     28.7775u    538.0111n     29.3155u   -770.8817p  
  121.00000n     28.7801u    540.5586n     29.3206u   -780.1182p  
  122.00000n     28.7826u    543.1060n     29.3257u   -789.3548p  
  123.00000n     28.7852u    545.6535n     29.3308u   -798.5913p  
  124.00000n     28.7877u    548.2010n     29.3359u   -807.8278p  
  125.00000n     28.7902u    550.7484n     29.3410u   -817.0643p  
  126.00000n     28.7956u    548.1563n     29.3437u   -838.9859p  
  127.00000n     28.8009u    545.5642n     29.3465u   -860.9074p  
  128.00000n     28.8062u    542.9721n     29.3492u   -882.8290p  
  129.00000n     28.8116u    540.3800n     29.3519u   -904.7505p  
  130.00000n     28.8169u    537.7879n     29.3547u   -926.6721p  
  131.00000n     28.8244u    530.3097n     29.3548u   -961.5899p  
  132.00000n     28.8320u    522.8315n     29.3548u   -996.5077p  
  133.00000n     28.8396u    515.3532n     29.3549u     -1.0314n  
  134.00000n     28.8471u    507.8750n     29.3550u     -1.0663n  
  135.00000n     28.8547u    500.3968n     29.3551u     -1.1013n  
  136.00000n     28.8633u    487.9588n     29.3512u     -1.0737n  
  137.00000n     28.8718u    475.5208n     29.3474u     -1.0460n  
  138.00000n     28.8804u    463.0828n     29.3435u     -1.0184n  
  139.00000n     28.8890u    450.6448n     29.3397u   -990.8223p  
  140.00000n     28.8976u    438.2068n     29.3358u   -963.2126p  
  141.00000n     28.9062u    425.7689n     29.3319u   -935.6029p  
  142.00000n     28.9148u    413.3309n     29.3281u   -907.9932p  
  143.00000n     28.9238u    399.1962n     29.3230u   -886.5134p  
  144.00000n     28.9333u    383.3649n     29.3166u   -871.1636p  
  145.00000n     28.9428u    367.5336n     29.3103u   -855.8137p  
  146.00000n     28.9523u    351.7023n     29.3040u   -840.4639p  
  147.00000n     28.9617u    335.8710n     29.2976u   -825.1141p  
  148.00000n     28.9712u    320.0397n     29.2913u   -809.7643p  
  149.00000n     28.9807u    304.2084n     29.2849u   -794.4144p  
  150.00000n     28.9898u    287.8873n     29.2777u   -778.9408p  
  151.00000n     28.9984u    271.4091n     29.2698u   -764.5127p  
  152.00000n     29.0067u    255.2021n     29.2619u   -735.0330p  
  153.00000n     29.0149u    239.0589n     29.2540u   -702.0158p  
  154.00000n     29.0232u    222.9157n     29.2461u   -668.9986p  
  155.00000n     29.0314u    206.7747n     29.2382u   -635.9825p  
  156.00000n     29.0362u    193.6610n     29.2299u   -604.4001p  
  157.00000n     29.0410u    180.5472n     29.2216u   -572.8177p  
  158.00000n     29.0458u    167.4335n     29.2133u   -541.2354p  
  159.00000n     29.0506u    154.3198n     29.2049u   -509.6530p  
  160.00000n     29.0554u    141.2060n     29.1966u   -478.0706p  
  161.00000n     29.0602u    128.0923n     29.1883u   -446.4882p  
  162.00000n     29.0650u    114.9786n     29.1800u   -414.9059p  
  163.00000n     29.0698u    101.8649n     29.1717u   -383.3235p  
  164.00000n     29.0746u     88.7511n     29.1633u   -351.7411p  
  165.00000n     29.0794u     75.6374n     29.1550u   -320.1588p  
  166.00000n     29.0794u     68.2018n     29.1476u   -275.8899p  
  167.00000n     29.0795u     60.7663n     29.1403u   -231.6210p  
  168.00000n     29.0795u     53.3307n     29.1329u   -187.3522p  
  169.00000n     29.0796u     45.8952n     29.1255u   -143.0833p  
  170.00000n     29.0797u     38.4596n     29.1181u    -98.8144p  
  171.00000n     29.0771u     35.9124n     29.1130u    -54.8885p  
  172.00000n     29.0745u     33.3652n     29.1079u    -10.9626p  
  173.00000n     29.0719u     30.8180n     29.1027u     32.9633p  
  174.00000n     29.0694u     28.2707n     29.0976u     76.8891p  
  175.00000n     29.0668u     25.7235n     29.0925u    120.8150p  
  176.00000n     29.0614u     28.3158n     29.0897u    166.8804p  
  177.00000n     29.0561u     30.9081n     29.0870u    212.9457p  
  178.00000n     29.0507u     33.5004n     29.0842u    259.0110p  
  179.00000n     29.0453u     36.0927n     29.0814u    305.0763p  
  180.00000n     29.0400u     38.6850n     29.0787u    351.1417p  
  181.00000n     29.0324u     46.1634n     29.0785u    275.9647p  
  182.00000n     29.0248u     53.6417n     29.0784u    200.7877p  
  183.00000n     29.0172u     61.1201n     29.0783u    125.6107p  
  184.00000n     29.0096u     68.5985n     29.0782u     50.4337p  
  185.00000n     29.0020u     76.0768n     29.0780u    -24.7433p  
  186.00000n     28.9933u     88.5150n     29.0819u    -29.3616p  
  187.00000n     28.9847u    100.9532n     29.0857u    -33.9798p  
  188.00000n     28.9761u    113.3914n     29.0895u    -38.5981p  
  189.00000n     28.9675u    125.8296n     29.0933u    -43.2163p  
  190.00000n     28.9589u    138.2678n     29.0972u    -47.8346p  
  191.00000n     28.9503u    150.7060n     29.1010u    -52.4528p  
  192.00000n     28.9417u    163.1441n     29.1048u    -57.0711p  
  193.00000n     28.9326u    177.2790n     29.1099u    -60.3577p  
  194.00000n     28.9231u    193.1105n     29.1162u    -62.3126p  
  195.00000n     28.9136u    208.9420n     29.1225u    -64.2676p  
  196.00000n     28.9040u    224.7735n     29.1288u    -66.2225p  
  197.00000n     28.8945u    240.6049n     29.1351u    -68.1775p  
  198.00000n     28.8850u    256.4364n     29.1414u    -70.1324p  
  199.00000n     28.8755u    272.2679n     29.1477u    -72.0874p  
  200.00000n     28.8663u    288.5893n     29.1549u    -79.6249p  
  201.00000n     28.8577u    305.0676n     29.1628u    -90.0091p  
  202.00000n     28.8494u    321.2748n     29.1706u   -102.9406p  
  203.00000n     28.8411u    337.4182n     29.1785u   -116.4708p  
  204.00000n     28.8328u    353.5616n     29.1864u   -130.0010p  
  205.00000n     28.8245u    369.7028n     29.1942u   -143.5402p  
  206.00000n     28.8197u    382.8168n     29.2025u   -169.6354p  
  207.00000n     28.8149u    395.9307n     29.2108u   -195.7305p  
  208.00000n     28.8100u    409.0446n     29.2191u   -221.8256p  
  209.00000n     28.8052u    422.1586n     29.2273u   -247.9208p  
  210.00000n     28.8004u    435.2725n     29.2356u   -274.0159p  
  211.00000n     28.7955u    448.3864n     29.2439u   -300.1111p  
  212.00000n     28.7907u    461.5003n     29.2522u   -326.2062p  
  213.00000n     28.7859u    474.6143n     29.2605u   -352.3014p  
  214.00000n     28.7810u    487.7282n     29.2687u   -378.3965p  
  215.00000n     28.7762u    500.8421n     29.2770u   -404.4916p  
  216.00000n     28.7761u    508.2779n     29.2844u   -451.5603p  
  217.00000n     28.7760u    515.7136n     29.2917u   -498.6289p  
  218.00000n     28.7759u    523.1493n     29.2990u   -545.6976p  
  219.00000n     28.7758u    530.5851n     29.3064u   -592.7662p  
  220.00000n     28.7757u    538.0208n     29.3137u   -639.8348p  
  221.00000n     28.7782u    540.5683n     29.3188u   -689.0354p  
  222.00000n     28.7808u    543.1157n     29.3239u   -738.2360p  
  223.00000n     28.7833u    545.6631n     29.3290u   -787.4365p  
  224.00000n     28.7859u    548.2106n     29.3341u   -836.6371p  
  225.00000n     28.7884u    550.7580n     29.3392u   -885.8377p  
  226.00000n     28.7937u    548.1659n     29.3419u   -906.1132p  
  227.00000n     28.7991u    545.5738n     29.3446u   -926.3886p  
  228.00000n     28.8044u    542.9817n     29.3474u   -946.6641p  
  229.00000n     28.8097u    540.3896n     29.3501u   -966.9396p  
  230.00000n     28.8151u    537.7975n     29.3529u   -987.2151p  
  231.00000n     28.8226u    530.3193n     29.3529u     -1.0176n  
  232.00000n     28.8302u    522.8410n     29.3530u     -1.0479n  
  233.00000n     28.8377u    515.3628n     29.3531u     -1.0783n  
  234.00000n     28.8453u    507.8846n     29.3532u     -1.1086n  
  235.00000n     28.8529u    500.4063n     29.3533u     -1.1390n  
  236.00000n     28.8614u    487.9684n     29.3494u     -1.1130n  
  237.00000n     28.8700u    475.5304n     29.3456u     -1.0870n  
  238.00000n     28.8786u    463.0924n     29.3417u     -1.0610n  
  239.00000n     28.8872u    450.6544n     29.3378u     -1.0350n  
  240.00000n     28.8958u    438.2164n     29.3340u     -1.0090n  
  241.00000n     28.9044u    425.7784n     29.3301u   -982.9533p  
  242.00000n     28.9129u    413.3404n     29.3263u   -956.9532p  
  243.00000n     28.9220u    399.2058n     29.3212u   -935.6033p  
  244.00000n     28.9315u    383.3745n     29.3148u   -918.9034p  
  245.00000n     28.9409u    367.5432n     29.3085u   -902.2036p  
  246.00000n     28.9504u    351.7119n     29.3021u   -885.5037p  
  247.00000n     28.9599u    335.8806n     29.2958u   -868.8039p  
  248.00000n     28.9694u    320.0493n     29.2895u   -852.1040p  
  249.00000n     28.9789u    304.2180n     29.2831u   -835.4042p  
  250.00000n     28.9880u    287.8968n     29.2759u   -817.6546p  
  251.00000n     28.9966u    271.4186n     29.2680u   -799.4915p  
  252.00000n     29.0049u    255.2117n     29.2601u   -770.1643p  
  253.00000n     29.0131u    239.0684n     29.2522u   -738.2130p  
  254.00000n     29.0214u    222.9252n     29.2443u   -706.2618p  
  255.00000n     29.0296u    206.7842n     29.2364u   -674.3101p  
  256.00000n     29.0344u    193.6705n     29.2281u   -641.6177p  
  257.00000n     29.0392u    180.5567n     29.2198u   -608.9253p  
  258.00000n     29.0440u    167.4430n     29.2115u   -576.2330p  
  259.00000n     29.0488u    154.3293n     29.2031u   -543.5406p  
  260.00000n     29.0536u    141.2155n     29.1948u   -510.8482p  
  261.00000n     29.0584u    128.1018n     29.1865u   -478.1558p  
  262.00000n     29.0632u    114.9881n     29.1782u   -445.4635p  
  263.00000n     29.0680u    101.8743n     29.1699u   -412.7711p  
  264.00000n     29.0728u     88.7606n     29.1615u   -380.0787p  
  265.00000n     29.0776u     75.6469n     29.1532u   -347.3864p  
  266.00000n     29.0776u     68.2113n     29.1458u   -300.4455p  
  267.00000n     29.0777u     60.7758n     29.1385u   -253.5046p  
  268.00000n     29.0777u     53.3402n     29.1311u   -206.5637p  
  269.00000n     29.0778u     45.9046n     29.1237u   -159.6228p  
  270.00000n     29.0779u     38.4691n     29.1163u   -112.6819p  
  271.00000n     29.0753u     35.9219n     29.1112u    -65.6307p  
  272.00000n     29.0727u     33.3746n     29.1061u    -18.5795p  
  273.00000n     29.0701u     30.8274n     29.1010u     28.4717p  
  274.00000n     29.0676u     28.2802n     29.0958u     75.5229p  
  275.00000n     29.0650u     25.7330n     29.0907u    122.5741p  
  276.00000n     29.0596u     28.3253n     29.0879u    172.0069p  
  277.00000n     29.0543u     30.9176n     29.0852u    221.4396p  
  278.00000n     29.0489u     33.5099n     29.0824u    270.8724p  
  279.00000n     29.0435u     36.1022n     29.0796u    320.3051p  
  280.00000n     29.0382u     38.6945n     29.0769u    369.7379p  
  281.00000n     29.0306u     46.1728n     29.0767u    285.8721p  
  282.00000n     29.0230u     53.6512n     29.0766u    202.0064p  
  283.00000n     29.0154u     61.1295n     29.0765u    118.1407p  
  284.00000n     29.0078u     68.6079n     29.0764u     34.2750p  
  285.00000n     29.0002u     76.0862n     29.0762u    -49.5907p  
  286.00000n     28.9915u     88.5244n     29.0801u    -53.3749p  
  287.00000n     28.9829u    100.9626n     29.0839u    -57.1592p  
  288.00000n     28.9743u    113.4008n     29.0877u    -60.9435p  
  289.00000n     28.9657u    125.8390n     29.0916u    -64.7278p  
  290.00000n     28.9571u    138.2772n     29.0954u    -68.5120p  
  291.00000n     28.9485u    150.7154n     29.0992u    -72.2963p  
  292.00000n     28.9399u    163.1536n     29.1030u    -76.0806p  
  293.00000n     28.9308u    177.2884n     29.1081u    -77.8238p  
  294.00000n     28.9213u    193.1199n     29.1144u    -77.5261p  
  295.00000n     28.9118u    208.9514n     29.1207u    -77.2283p  
  296.00000n     28.9022u    224.7829n     29.1270u    -76.9305p  
  297.00000n     28.8927u    240.6143n     29.1333u    -76.6328p  
  298.00000n     28.8832u    256.4458n     29.1396u    -76.3350p  
  299.00000n     28.8737u    272.2773n     29.1459u    -76.0373p  
  300.00000n     28.8645u    288.5987n     29.1531u    -81.4429p  
  301.00000n     28.8559u    305.0770n     29.1610u    -89.2861p  
  302.00000n     28.8476u    321.2842n     29.1689u    -99.4754p  
  303.00000n     28.8393u    337.4276n     29.1767u   -110.2160p  
  304.00000n     28.8310u    353.5710n     29.1846u   -120.9567p  
  305.00000n     28.8227u    369.7122n     29.1924u   -131.7066p  
  306.00000n     28.8179u    382.8262n     29.2007u   -155.2737p  
  307.00000n     28.8131u    395.9401n     29.2090u   -178.8407p  
  308.00000n     28.8082u    409.0540n     29.2173u   -202.4078p  
  309.00000n     28.8034u    422.1679n     29.2256u   -225.9749p  
  310.00000n     28.7986u    435.2819n     29.2338u   -249.5419p  
  311.00000n     28.7937u    448.3958n     29.2421u   -273.1090p  
  312.00000n     28.7889u    461.5097n     29.2504u   -296.6760p  
  313.00000n     28.7841u    474.6236n     29.2587u   -320.2431p  
  314.00000n     28.7792u    487.7376n     29.2670u   -343.8101p  
  315.00000n     28.7744u    500.8515n     29.2753u   -367.3772p  
  316.00000n     28.7743u    508.2872n     29.2826u   -412.7880p  
  317.00000n     28.7742u    515.7230n     29.2899u   -458.1989p  
  318.00000n     28.7741u    523.1587n     29.2973u   -503.6097p  
  319.00000n     28.7740u    530.5945n     29.3046u   -549.0205p  
  320.00000n     28.7739u    538.0302n     29.3119u   -594.4314p  
  321.00000n     28.7765u    540.5776n     29.3170u   -656.0347p  
  322.00000n     28.7790u    543.1251n     29.3221u   -717.6381p  
  323.00000n     28.7815u    545.6725n     29.3272u   -779.2415p  
  324.00000n     28.7841u    548.2199n     29.3323u   -840.8448p  
  325.00000n     28.7866u    550.7673n     29.3374u   -902.4482p  
  326.00000n     28.7920u    548.1752n     29.3401u   -922.0002p  
  327.00000n     28.7973u    545.5831n     29.3429u   -941.5523p  
  328.00000n     28.8026u    542.9910n     29.3456u   -961.1044p  
  329.00000n     28.8079u    540.3989n     29.3483u   -980.6564p  
  330.00000n     28.8133u    537.8068n     29.3511u     -1.0002n  
  331.00000n     28.8208u    530.3286n     29.3512u     -1.0285n  
  332.00000n     28.8284u    522.8503n     29.3512u     -1.0569n  
  333.00000n     28.8360u    515.3721n     29.3513u     -1.0852n  
  334.00000n     28.8435u    507.8939n     29.3514u     -1.1136n  
  335.00000n     28.8511u    500.4157n     29.3515u     -1.1419n  
  336.00000n     28.8597u    487.9777n     29.3476u     -1.1166n  
  337.00000n     28.8682u    475.5397n     29.3438u     -1.0913n  
  338.00000n     28.8768u    463.1017n     29.3399u     -1.0660n  
  339.00000n     28.8854u    450.6637n     29.3361u     -1.0407n  
  340.00000n     28.8940u    438.2257n     29.3322u     -1.0155n  
  341.00000n     28.9026u    425.7877n     29.3284u   -990.1579p  
  342.00000n     28.9112u    413.3497n     29.3245u   -964.8653p  
  343.00000n     28.9202u    399.2151n     29.3194u   -943.5732p  
  344.00000n     28.9297u    383.3838n     29.3131u   -926.2818p  
  345.00000n     28.9392u    367.5525n     29.3067u   -908.9903p  
  346.00000n     28.9487u    351.7211n     29.3004u   -891.6989p  
  347.00000n     28.9582u    335.8898n     29.2940u   -874.4075p  
  348.00000n     28.9676u    320.0585n     29.2877u   -857.1161p  
  349.00000n     28.9771u    304.2272n     29.2814u   -839.8246p  
  350.00000n     28.9862u    287.9061n     29.2741u   -821.0781p  
  351.00000n     28.9948u    271.4279n     29.2662u   -801.2797p  
  352.00000n     29.0031u    255.2209n     29.2583u   -772.0200p  
  353.00000n     29.0114u    239.0777n     29.2504u   -740.5366p  
  354.00000n     29.0196u    222.9345n     29.2425u   -709.0531p  
  355.00000n     29.0279u    206.7935n     29.2346u   -677.5685p  
  356.00000n     29.0327u    193.6797n     29.2263u   -644.3916p  
  357.00000n     29.0374u    180.5660n     29.2180u   -611.2147p  
  358.00000n     29.0422u    167.4523n     29.2097u   -578.0378p  
  359.00000n     29.0470u    154.3385n     29.2014u   -544.8608p  
  360.00000n     29.0518u    141.2248n     29.1931u   -511.6839p  
  361.00000n     29.0566u    128.1111n     29.1847u   -478.5070p  
  362.00000n     29.0614u    114.9973n     29.1764u   -445.3301p  
  363.00000n     29.0662u    101.8836n     29.1681u   -412.1532p  
  364.00000n     29.0710u     88.7698n     29.1598u   -378.9763p  
  365.00000n     29.0758u     75.6561n     29.1515u   -345.7994p  
  366.00000n     29.0759u     68.2205n     29.1441u   -297.6946p  
  367.00000n     29.0759u     60.7850n     29.1367u   -249.5899p  
  368.00000n     29.0760u     53.3494n     29.1293u   -201.4851p  
  369.00000n     29.0760u     45.9139n     29.1219u   -153.3803p  
  370.00000n     29.0761u     38.4783n     29.1146u   -105.2755p  
  371.00000n     29.0735u     35.9311n     29.1094u    -56.8656p  
  372.00000n     29.0709u     33.3839n     29.1043u     -8.4556p  
  373.00000n     29.0684u     30.8366n     29.0992u     39.9544p  
  374.00000n     29.0658u     28.2894n     29.0941u     88.3644p  
  375.00000n     29.0632u     25.7422n     29.0890u    136.7743p  
  376.00000n     29.0579u     28.3345n     29.0862u    187.6622p  
  377.00000n     29.0525u     30.9268n     29.0834u    238.5501p  
  378.00000n     29.0471u     33.5191n     29.0807u    289.4380p  
  379.00000n     29.0418u     36.1114n     29.0779u    340.3258p  
  380.00000n     29.0364u     38.7037n     29.0751u    391.2137p  
  381.00000n     29.0288u     46.1820n     29.0750u    303.5740p  
  382.00000n     29.0212u     53.6604n     29.0749u    215.9343p  
  383.00000n     29.0136u     61.1387n     29.0748u    128.2946p  
  384.00000n     29.0060u     68.6171n     29.0746u     40.6549p  
  385.00000n     28.9984u     76.0954n     29.0745u    -46.9848p  
  386.00000n     28.9898u     88.5336n     29.0783u    -50.4073p  
  387.00000n     28.9812u    100.9718n     29.0822u    -53.8298p  
  388.00000n     28.9726u    113.4100n     29.0860u    -57.2523p  
  389.00000n     28.9640u    125.8482n     29.0898u    -60.6748p  
  390.00000n     28.9554u    138.2863n     29.0936u    -64.0973p  
  391.00000n     28.9467u    150.7245n     29.0975u    -67.5198p  
  392.00000n     28.9381u    163.1627n     29.1013u    -70.9423p  
  393.00000n     28.9291u    177.2975n     29.1064u    -72.0160p  
  394.00000n     28.9195u    193.1290n     29.1127u    -70.7411p  
  395.00000n     28.9100u    208.9605n     29.1190u    -69.4662p  
  396.00000n     28.9005u    224.7920n     29.1253u    -68.1913p  
  397.00000n     28.8910u    240.6235n     29.1316u    -66.9163p  
  398.00000n     28.8814u    256.4550n     29.1379u    -65.6414p  
  399.00000n     28.8719u    272.2865n     29.1442u    -64.3665p  
  400.00000n     28.8628u    288.6078n     29.1514u    -68.8482p  
  401.00000n     28.8542u    305.0862n     29.1593u    -75.5921p  
  402.00000n     28.8458u    321.2933n     29.1671u    -84.5975p  
  403.00000n     28.8376u    337.4367n     29.1750u    -94.1345p  
  404.00000n     28.8293u    353.5801n     29.1829u   -103.6715p  
  405.00000n     28.8210u    369.7214n     29.1907u   -113.2177p  
  406.00000n     28.8162u    382.8353n     29.1990u   -135.7014p  
  407.00000n     28.8113u    395.9492n     29.2073u   -158.1850p  
  408.00000n     28.8065u    409.0631n     29.2156u   -180.6687p  
  409.00000n     28.8017u    422.1771n     29.2238u   -203.1523p  
  410.00000n     28.7968u    435.2910n     29.2321u   -225.6359p  
  411.00000n     28.7920u    448.4049n     29.2404u   -248.1196p  
  412.00000n     28.7872u    461.5188n     29.2487u   -270.6032p  
  413.00000n     28.7823u    474.6328n     29.2570u   -293.0869p  
  414.00000n     28.7775u    487.7467n     29.2652u   -315.5705p  
  415.00000n     28.7727u    500.8606n     29.2735u   -338.0541p  
  416.00000n     28.7726u    508.2964n     29.2809u   -382.7753p  
  417.00000n     28.7725u    515.7321n     29.2882u   -427.4965p  
  418.00000n     28.7724u    523.1678n     29.2955u   -472.2178p  
  419.00000n     28.7723u    530.6036n     29.3029u   -516.9390p  
  420.00000n     28.7722u    538.0393n     29.3102u   -561.6602p  
  421.00000n     28.7747u    540.5867n     29.3153u   -628.5846p  
  422.00000n     28.7773u    543.1342n     29.3204u   -695.5090p  
  423.00000n     28.7798u    545.6816n     29.3255u   -762.4335p  
  424.00000n     28.7824u    548.2290n     29.3306u   -829.3579p  
  425.00000n     28.7849u    550.7764n     29.3357u   -896.2823p  
  426.00000n     28.7902u    548.1843n     29.3384u   -965.7268p  
  427.00000n     28.7956u    545.5922n     29.3411u     -1.0352n  
  428.00000n     28.8009u    543.0001n     29.3439u     -1.1046n  
  429.00000n     28.8062u    540.4080n     29.3466u     -1.1741n  
  430.00000n     28.8115u    537.8159n     29.3494u     -1.2435n  
  431.00000n     28.8191u    530.3376n     29.3494u     -1.3031n  
  432.00000n     28.8267u    522.8594n     29.3495u     -1.3627n  
  433.00000n     28.8342u    515.3812n     29.3496u     -1.4224n  
  434.00000n     28.8418u    507.9030n     29.3497u     -1.4820n  
  435.00000n     28.8494u    500.4248n     29.3498u     -1.5416n  
  436.00000n     28.8579u    487.9868n     29.3459u     -1.4560n  
  437.00000n     28.8665u    475.5488n     29.3421u     -1.3705n  
  438.00000n     28.8751u    463.1108n     29.3382u     -1.2849n  
  439.00000n     28.8837u    450.6728n     29.3344u     -1.1993n  
  440.00000n     28.8923u    438.2348n     29.3305u     -1.1138n  
  441.00000n     28.9009u    425.7968n     29.3267u     -1.0282n  
  442.00000n     28.9094u    413.3588n     29.3228u   -942.6331p  
  443.00000n     28.9185u    399.2242n     29.3177u   -891.4832p  
  444.00000n     28.9280u    383.3928n     29.3114u   -874.7527p  
  445.00000n     28.9375u    367.5615n     29.3050u   -858.0222p  
  446.00000n     28.9469u    351.7302n     29.2987u   -841.2916p  
  447.00000n     28.9564u    335.8989n     29.2923u   -824.5611p  
  448.00000n     28.9659u    320.0676n     29.2860u   -807.8306p  
  449.00000n     28.9754u    304.2363n     29.2797u   -791.1001p  
  450.00000n     28.9845u    287.9151n     29.2724u   -773.2999p  
  451.00000n     28.9931u    271.4370n     29.2645u   -755.0563p  
  452.00000n     29.0014u    255.2300n     29.2566u   -725.7346p  
  453.00000n     29.0096u    239.0868n     29.2487u   -693.8092p  
  454.00000n     29.0179u    222.9436n     29.2408u   -661.8837p  
  455.00000n     29.0261u    206.8025n     29.2329u   -629.9522p  
  456.00000n     29.0309u    193.6888n     29.2246u   -589.5873p  
  457.00000n     29.0357u    180.5751n     29.2163u   -549.2223p  
  458.00000n     29.0405u    167.4613n     29.2080u   -508.8574p  
  459.00000n     29.0453u    154.3476n     29.1997u   -468.4924p  
  460.00000n     29.0501u    141.2339n     29.1914u   -428.1275p  
  461.00000n     29.0549u    128.1201n     29.1830u   -387.7625p  
  462.00000n     29.0597u    115.0064n     29.1747u   -347.3976p  
  463.00000n     29.0645u    101.8927n     29.1664u   -307.0327p  
  464.00000n     29.0693u     88.7789n     29.1581u   -266.6677p  
  465.00000n     29.0741u     75.6652n     29.1498u   -226.3028p  
  466.00000n     29.0742u     68.2296n     29.1424u   -175.6378p  
  467.00000n     29.0742u     60.7941n     29.1350u   -124.9728p  
  468.00000n     29.0743u     53.3585n     29.1276u    -74.3078p  
  469.00000n     29.0743u     45.9230n     29.1203u    -23.6428p  
  470.00000n     29.0744u     38.4874n     29.1129u     27.0221p  
  471.00000n     29.0718u     35.9402n     29.1078u     75.6768p  
  472.00000n     29.0693u     33.3930n     29.1026u    124.3315p  
  473.00000n     29.0667u     30.8458n     29.0975u    172.9862p  
  474.00000n     29.0641u     28.2985n     29.0924u    221.6409p  
  475.00000n     29.0615u     25.7513n     29.0873u    270.2956p  
  476.00000n     29.0562u     28.3436n     29.0845u    317.3866p  
  477.00000n     29.0508u     30.9359n     29.0817u    364.4775p  
  478.00000n     29.0455u     33.5282n     29.0790u    411.5684p  
  479.00000n     29.0401u     36.1205n     29.0762u    458.6594p  
  480.00000n     29.0347u     38.7128n     29.0734u    505.7503p  
  481.00000n     29.0271u     46.1911n     29.0733u    395.7619p  
  482.00000n     29.0195u     53.6695n     29.0732u    285.7736p  
  483.00000n     29.0119u     61.1478n     29.0731u    175.7853p  
  484.00000n     29.0043u     68.6261n     29.0729u     65.7969p  
  485.00000n     28.9967u     76.1044n     29.0728u    -44.1914p  
  486.00000n     28.9881u     88.5426n     29.0766u    -47.3334p  
  487.00000n     28.9795u    100.9808n     29.0805u    -50.4753p  
  488.00000n     28.9709u    113.4190n     29.0843u    -53.6173p  
  489.00000n     28.9623u    125.8572n     29.0881u    -56.7592p  
  490.00000n     28.9537u    138.2953n     29.0920u    -59.9012p  
  491.00000n     28.9450u    150.7335n     29.0958u    -63.0432p  
  492.00000n     28.9364u    163.1717n     29.0996u    -66.1851p  
  493.00000n     28.9274u    177.3065n     29.1047u    -66.7388p  
  494.00000n     28.9178u    193.1380n     29.1110u    -64.7041p  
  495.00000n     28.9083u    208.9695n     29.1173u    -62.6694p  
  496.00000n     28.8988u    224.8010n     29.1236u    -60.6348p  
  497.00000n     28.8893u    240.6325n     29.1299u    -58.6001p  
  498.00000n     28.8798u    256.4640n     29.1362u    -56.5654p  
  499.00000n     28.8702u    272.2954n     29.1425u    -54.5308p  
  500.00000n     28.8611u    288.6168n     29.1497u    -58.2941p  
  501.00000n     28.8525u    305.0951n     29.1576u    -64.1829p  
  502.00000n     28.8442u    321.3023n     29.1655u    -72.2675p  
  503.00000n     28.8359u    337.4457n     29.1733u    -80.8681p  
  504.00000n     28.8276u    353.5891n     29.1812u    -89.4688p  
  505.00000n     28.8193u    369.7303n     29.1890u    -98.0789p  
  506.00000n     28.8145u    382.8443n     29.1973u   -119.7201p  
  507.00000n     28.8096u    395.9582n     29.2056u   -141.3614p  
  508.00000n     28.8048u    409.0721n     29.2139u   -163.0026p  
  509.00000n     28.8000u    422.1860n     29.2222u   -184.6439p  
  510.00000n     28.7951u    435.3000n     29.2304u   -206.2852p  
  511.00000n     28.7903u    448.4139n     29.2387u   -227.9264p  
  512.00000n     28.7855u    461.5278n     29.2470u   -249.5677p  
  513.00000n     28.7806u    474.6417n     29.2553u   -271.2089p  
  514.00000n     28.7758u    487.7557n     29.2636u   -292.8502p  
  515.00000n     28.7710u    500.8696n     29.2719u   -314.4914p  
  516.00000n     28.7709u    508.3053n     29.2792u   -358.6777p  
  517.00000n     28.7708u    515.7410n     29.2865u   -402.8640p  
  518.00000n     28.7707u    523.1768n     29.2939u   -447.0502p  
  519.00000n     28.7706u    530.6125n     29.3012u   -491.2365p  
  520.00000n     28.7705u    538.0483n     29.3086u   -535.4227p  
  521.00000n     28.7731u    540.5957n     29.3136u   -606.4883p  
  522.00000n     28.7756u    543.1431n     29.3187u   -677.5539p  
  523.00000n     28.7781u    545.6905n     29.3238u   -748.6195p  
  524.00000n     28.7807u    548.2379n     29.3289u   -819.6851p  
  525.00000n     28.7832u    550.7853n     29.3340u   -890.7506p  
  526.00000n     28.7885u    548.1932n     29.3367u   -963.1452p  
  527.00000n     28.7939u    545.6011n     29.3395u     -1.0355n  
  528.00000n     28.7992u    543.0090n     29.3422u     -1.1079n  
  529.00000n     28.8045u    540.4169n     29.3450u     -1.1803n  
  530.00000n     28.8099u    537.8248n     29.3477u     -1.2527n  
  531.00000n     28.8174u    530.3466n     29.3478u     -1.1951n  
  532.00000n     28.8250u    522.8684n     29.3479u     -1.1374n  
  533.00000n     28.8326u    515.3902n     29.3480u     -1.0798n  
  534.00000n     28.8401u    507.9120n     29.3481u     -1.0222n  
  535.00000n     28.8477u    500.4338n     29.3481u   -964.5246p  
  536.00000n     28.8563u    487.9958n     29.3443u   -957.8469p  
  537.00000n     28.8649u    475.5578n     29.3404u   -951.1692p  
  538.00000n     28.8734u    463.1197n     29.3366u   -944.4915p  
  539.00000n     28.8820u    450.6817n     29.3327u   -937.8137p  
  540.00000n     28.8906u    438.2437n     29.3289u   -931.1360p  
  541.00000n     28.8992u    425.8057n     29.3250u   -924.4583p  
  542.00000n     28.9078u    413.3677n     29.3211u   -917.7806p  
  543.00000n     28.9168u    399.2330n     29.3160u   -910.7171p  
  544.00000n     28.9263u    383.4017n     29.3097u   -903.2677p  
  545.00000n     28.9358u    367.5704n     29.3033u   -895.8183p  
  546.00000n     28.9453u    351.7390n     29.2970u   -888.3690p  
  547.00000n     28.9548u    335.9077n     29.2907u   -880.9196p  
  548.00000n     28.9642u    320.0764n     29.2843u   -873.4703p  
  549.00000n     28.9737u    304.2451n     29.2780u   -866.0209p  
  550.00000n     28.9828u    287.9239n     29.2708u   -853.2077p  
  551.00000n     28.9914u    271.4457n     29.2628u   -836.3869p  
  552.00000n     28.9997u    255.2387n     29.2550u   -785.8033p  
  553.00000n     29.0080u    239.0956n     29.2471u   -727.2843p  
  554.00000n     29.0162u    222.9524n     29.2392u   -668.7653p  
  555.00000n     29.0245u    206.8114n     29.2313u   -610.2649p  
  556.00000n     29.0293u    193.6977n     29.2230u   -577.5861p  
  557.00000n     29.0341u    180.5839n     29.2147u   -544.9073p  
  558.00000n     29.0389u    167.4702n     29.2063u   -512.2285p  
  559.00000n     29.0437u    154.3565n     29.1980u   -479.5497p  
  560.00000n     29.0485u    141.2427n     29.1897u   -446.8708p  
  561.00000n     29.0533u    128.1290n     29.1814u   -414.1920p  
  562.00000n     29.0581u    115.0152n     29.1731u   -381.5132p  
  563.00000n     29.0629u    101.9015n     29.1648u   -348.8344p  
  564.00000n     29.0676u     88.7877n     29.1564u   -316.1556p  
  565.00000n     29.0724u     75.6740n     29.1481u   -283.4767p  
  566.00000n     29.0725u     68.2384n     29.1407u   -236.5811p  
  567.00000n     29.0726u     60.8029n     29.1334u   -189.6855p  
  568.00000n     29.0726u     53.3673n     29.1260u   -142.7899p  
  569.00000n     29.0727u     45.9317n     29.1186u    -95.8943p  
  570.00000n     29.0727u     38.4962n     29.1112u    -48.9987p  
  571.00000n     29.0702u     35.9489n     29.1061u     -2.0127p  
  572.00000n     29.0676u     33.4017n     29.1010u     44.9732p  
  573.00000n     29.0650u     30.8545n     29.0959u     91.9592p  
  574.00000n     29.0624u     28.3073n     29.0907u    138.9452p  
  575.00000n     29.0599u     25.7600n     29.0856u    185.9311p  
  576.00000n     29.0545u     28.3523n     29.0829u    235.2510p  
  577.00000n     29.0491u     30.9446n     29.0801u    284.5708p  
  578.00000n     29.0438u     33.5369n     29.0773u    333.8907p  
  579.00000n     29.0384u     36.1292n     29.0746u    383.2106p  
  580.00000n     29.0331u     38.7215n     29.0718u    432.5304p  
  581.00000n     29.0255u     46.1998n     29.0717u    348.8653p  
  582.00000n     29.0179u     53.6782n     29.0715u    265.2002p  
  583.00000n     29.0103u     61.1565n     29.0714u    181.5351p  
  584.00000n     29.0027u     68.6349n     29.0713u     97.8700p  
  585.00000n     28.9951u     76.1132n     29.0712u     14.2049p  
  586.00000n     28.9865u     88.5514n     29.0750u     10.3993p  
  587.00000n     28.9778u    100.9896n     29.0788u      6.5937p  
  588.00000n     28.9692u    113.4278n     29.0827u      2.7881p  
  589.00000n     28.9606u    125.8659n     29.0865u     -1.0174p  
  590.00000n     28.9520u    138.3041n     29.0903u     -4.8230p  
  591.00000n     28.9434u    150.7423n     29.0941u     -8.6286p  
  592.00000n     28.9348u    163.1805n     29.0980u    -12.4342p  
  593.00000n     28.9257u    177.3153n     29.1030u    -14.2178p  
  594.00000n     28.9162u    193.1468n     29.1093u    -13.9795p  
  595.00000n     28.9067u    208.9783n     29.1157u    -13.7412p  
  596.00000n     28.8972u    224.8097n     29.1220u    -13.5028p  
  597.00000n     28.8876u    240.6412n     29.1283u    -13.2645p  
  598.00000n     28.8781u    256.4727n     29.1346u    -13.0262p  
  599.00000n     28.8686u    272.3042n     29.1409u    -12.7879p  
  600.00000n     28.8595u    288.6255n     29.1481u    -18.2540p  
  601.00000n     28.8509u    305.1039n     29.1560u    -26.1792p  
  602.00000n     28.8425u    321.3110n     29.1638u    -36.4691p  
  603.00000n     28.8342u    337.4544n     29.1717u    -47.3148p  
  604.00000n     28.8259u    353.5978n     29.1795u    -58.1605p  
  605.00000n     28.8177u    369.7391n     29.1874u    -69.0155p  
  606.00000n     28.8128u    382.8530n     29.1957u    -92.7135p  
  607.00000n     28.8080u    395.9669n     29.2040u   -116.4116p  
  608.00000n     28.8032u    409.0808n     29.2123u   -140.1096p  
  609.00000n     28.7983u    422.1948n     29.2205u   -163.8076p  
  610.00000n     28.7935u    435.3087n     29.2288u   -187.5056p  
  611.00000n     28.7887u    448.4226n     29.2371u   -211.2037p  
  612.00000n     28.7838u    461.5365n     29.2454u   -234.9017p  
  613.00000n     28.7790u    474.6505n     29.2537u   -258.5997p  
  614.00000n     28.7742u    487.7644n     29.2619u   -282.2977p  
  615.00000n     28.7693u    500.8783n     29.2702u   -305.9958p  
  616.00000n     28.7693u    508.3140n     29.2776u   -351.5917p  
  617.00000n     28.7692u    515.7498n     29.2849u   -397.1876p  
  618.00000n     28.7691u    523.1855n     29.2923u   -442.7835p  
  619.00000n     28.7690u    530.6212n     29.2996u   -488.3794p  
  620.00000n     28.7689u    538.0570n     29.3069u   -533.9754p  
  621.00000n     28.7714u    540.6044n     29.3120u   -594.9694p  
  622.00000n     28.7740u    543.1518n     29.3171u   -655.9635p  
  623.00000n     28.7765u    545.6992n     29.3222u   -716.9575p  
  624.00000n     28.7790u    548.2466n     29.3273u   -777.9516p  
  625.00000n     28.7816u    550.7940n     29.3324u   -838.9457p  
  626.00000n     28.7869u    548.2019n     29.3351u   -904.0254p  
  627.00000n     28.7922u    545.6098n     29.3379u   -969.1052p  
  628.00000n     28.7976u    543.0177n     29.3406u     -1.0342n  
  629.00000n     28.8029u    540.4255n     29.3433u     -1.0993n  
  630.00000n     28.8082u    537.8334n     29.3461u     -1.1643n  
  631.00000n     28.8158u    530.3552n     29.3462u     -1.1143n  
  632.00000n     28.8234u    522.8770n     29.3462u     -1.0643n  
  633.00000n     28.8309u    515.3988n     29.3463u     -1.0143n  
  634.00000n     28.8385u    507.9207n     29.3464u   -964.2679p  
  635.00000n     28.8461u    500.4425n     29.3465u   -914.2488p  
  636.00000n     28.8547u    488.0044n     29.3427u   -908.1038p  
  637.00000n     28.8632u    475.5664n     29.3388u   -901.9588p  
  638.00000n     28.8718u    463.1284n     29.3349u   -895.8139p  
  639.00000n     28.8804u    450.6904n     29.3311u   -889.6689p  
  640.00000n     28.8890u    438.2524n     29.3272u   -883.5239p  
  641.00000n     28.8976u    425.8143n     29.3234u   -877.3789p  
  642.00000n     28.9061u    413.3763n     29.3195u   -871.2340p  
  643.00000n     28.9152u    399.2416n     29.3144u   -865.1572p  
  644.00000n     28.9247u    383.4103n     29.3081u   -859.1485p  
  645.00000n     28.9342u    367.5790n     29.3017u   -853.1399p  
  646.00000n     28.9436u    351.7477n     29.2954u   -847.1313p  
  647.00000n     28.9531u    335.9163n     29.2890u   -841.1227p  
  648.00000n     28.9626u    320.0850n     29.2827u   -835.1141p  
  649.00000n     28.9721u    304.2537n     29.2764u   -829.1055p  
  650.00000n     28.9812u    287.9325n     29.2691u   -817.6580p  
  651.00000n     28.9898u    271.4543n     29.2612u   -802.4707p  
  652.00000n     28.9981u    255.2474n     29.2533u   -749.7149p  
  653.00000n     29.0063u    239.1042n     29.2455u   -688.1294p  
  654.00000n     29.0146u    222.9610n     29.2376u   -626.5438p  
  655.00000n     29.0229u    206.8200n     29.2297u   -564.9794p  
  656.00000n     29.0277u    193.7063n     29.2214u   -532.7715p  
  657.00000n     29.0325u    180.5926n     29.2130u   -500.5635p  
  658.00000n     29.0373u    167.4788n     29.2047u   -468.3556p  
  659.00000n     29.0420u    154.3651n     29.1964u   -436.1477p  
  660.00000n     29.0468u    141.2513n     29.1881u   -403.9397p  
  661.00000n     29.0516u    128.1376n     29.1798u   -371.7318p  
  662.00000n     29.0564u    115.0238n     29.1715u   -339.5239p  
  663.00000n     29.0612u    101.9101n     29.1631u   -307.3159p  
  664.00000n     29.0660u     88.7963n     29.1548u   -275.1080p  
  665.00000n     29.0708u     75.6826n     29.1465u   -242.9000p  
  666.00000n     29.0709u     68.2470n     29.1391u   -197.1435p  
  667.00000n     29.0709u     60.8115n     29.1318u   -151.3870p  
  668.00000n     29.0710u     53.3759n     29.1244u   -105.6305p  
  669.00000n     29.0711u     45.9403n     29.1170u    -59.8739p  
  670.00000n     29.0711u     38.5048n     29.1096u    -14.1174p  
  671.00000n     29.0685u     35.9575n     29.1045u     31.5306p  
  672.00000n     29.0660u     33.4103n     29.0994u     77.1787p  
  673.00000n     29.0634u     30.8631n     29.0943u    122.8267p  
  674.00000n     29.0608u     28.3158n     29.0891u    168.4748p  
  675.00000n     29.0583u     25.7686n     29.0840u    214.1228p  
  676.00000n     29.0529u     28.3609n     29.0813u    261.9816p  
  677.00000n     29.0475u     30.9532n     29.0785u    309.8404p  
  678.00000n     29.0422u     33.5455n     29.0757u    357.6992p  
  679.00000n     29.0368u     36.1378n     29.0730u    405.5579p  
  680.00000n     29.0315u     38.7301n     29.0702u    453.4167p  
  681.00000n     29.0239u     46.2084n     29.0701u    373.4804p  
  682.00000n     29.0163u     53.6867n     29.0699u    293.5441p  
  683.00000n     29.0087u     61.1651n     29.0698u    213.6078p  
  684.00000n     29.0011u     68.6434n     29.0697u    133.6714p  
  685.00000n     28.9935u     76.1218n     29.0696u     53.7351p  
  686.00000n     28.9848u     88.5599n     29.0734u     49.5707p  
  687.00000n     28.9762u    100.9981n     29.0772u     45.4062p  
  688.00000n     28.9676u    113.4363n     29.0811u     41.2418p  
  689.00000n     28.9590u    125.8745n     29.0849u     37.0773p  
  690.00000n     28.9504u    138.3127n     29.0887u     32.9129p  
  691.00000n     28.9418u    150.7508n     29.0925u     28.7484p  
  692.00000n     28.9332u    163.1890n     29.0964u     24.5840p  
  693.00000n     28.9241u    177.3238n     29.1014u     22.1357p  
  694.00000n     28.9146u    193.1553n     29.1078u     21.4036p  
  695.00000n     28.9051u    208.9868n     29.1141u     20.6715p  
  696.00000n     28.8956u    224.8183n     29.1204u     19.9394p  
  697.00000n     28.8860u    240.6497n     29.1267u     19.2073p  
  698.00000n     28.8765u    256.4812n     29.1330u     18.4752p  
  699.00000n     28.8670u    272.3127n     29.1393u     17.7431p  
  700.00000n     28.8579u    288.6341n     29.1465u     11.3567p  
  701.00000n     28.8493u    305.1124n     29.1544u      2.3301p  
  702.00000n     28.8409u    321.3195n     29.1622u     -9.1542p  
  703.00000n     28.8326u    337.4629n     29.1701u    -21.2160p  
  704.00000n     28.8244u    353.6064n     29.1780u    -33.2779p  
  705.00000n     28.8161u    369.7476n     29.1858u    -45.3490p  
  706.00000n     28.8112u    382.8615n     29.1941u    -70.1656p  
  707.00000n     28.8064u    395.9754n     29.2024u    -94.9822p  
  708.00000n     28.8016u    409.0893n     29.2107u   -119.7988p  
  709.00000n     28.7967u    422.2033n     29.2190u   -144.6154p  
  710.00000n     28.7919u    435.3172n     29.2272u   -169.4320p  
  711.00000n     28.7871u    448.4311n     29.2355u   -194.2486p  
  712.00000n     28.7823u    461.5450n     29.2438u   -219.0652p  
  713.00000n     28.7774u    474.6589n     29.2521u   -243.8818p  
  714.00000n     28.7726u    487.7729n     29.2604u   -268.6984p  
  715.00000n     28.7678u    500.8868n     29.2686u   -293.5149p  
  716.00000n     28.7677u    508.3225n     29.2760u   -339.8898p  
  717.00000n     28.7676u    515.7583n     29.2833u   -386.2647p  
  718.00000n     28.7675u    523.1940n     29.2907u   -432.6395p  
  719.00000n     28.7674u    530.6297n     29.2980u   -479.0144p  
  720.00000n     28.7673u    538.0655n     29.3054u   -525.3892p  
  721.00000n     28.7698u    540.6129n     29.3104u   -580.9114p  
  722.00000n     28.7724u    543.1603n     29.3155u   -636.4335p  
  723.00000n     28.7749u    545.7077n     29.3206u   -691.9556p  
  724.00000n     28.7775u    548.2551n     29.3257u   -747.4778p  
  725.00000n     28.7800u    550.8025n     29.3308u   -802.9999p  
  726.00000n     28.7853u    548.2104n     29.3335u   -864.0887p  
  727.00000n     28.7907u    545.6182n     29.3363u   -925.1776p  
  728.00000n     28.7960u    543.0261n     29.3390u   -986.2664p  
  729.00000n     28.8013u    540.4340n     29.3417u     -1.0474n  
  730.00000n     28.8066u    537.8419n     29.3445u     -1.1084n  
  731.00000n     28.8142u    530.3637n     29.3446u     -1.0626n  
  732.00000n     28.8218u    522.8855n     29.3447u     -1.0167n  
  733.00000n     28.8294u    515.4073n     29.3448u   -970.8592p  
  734.00000n     28.8369u    507.9291n     29.3449u   -924.9976p  
  735.00000n     28.8445u    500.4509n     29.3449u   -879.1360p  
  736.00000n     28.8531u    488.0129n     29.3411u   -873.2801p  
  737.00000n     28.8617u    475.5749n     29.3372u   -867.4242p  
  738.00000n     28.8702u    463.1368n     29.3334u   -861.5682p  
  739.00000n     28.8788u    450.6988n     29.3295u   -855.7123p  
  740.00000n     28.8874u    438.2608n     29.3257u   -849.8564p  
  741.00000n     28.8960u    425.8228n     29.3218u   -844.0005p  
  742.00000n     28.9046u    413.3847n     29.3179u   -838.1446p  
  743.00000n     28.9136u    399.2501n     29.3128u   -832.6031p  
  744.00000n     28.9231u    383.4187n     29.3065u   -827.3760p  
  745.00000n     28.9326u    367.5874n     29.3002u   -822.1489p  
  746.00000n     28.9421u    351.7561n     29.2938u   -816.9218p  
  747.00000n     28.9515u    335.9248n     29.2875u   -811.6947p  
  748.00000n     28.9610u    320.0934n     29.2811u   -806.4676p  
  749.00000n     28.9705u    304.2621n     29.2748u   -801.2405p  
  750.00000n     28.9796u    287.9409n     29.2676u   -790.5346p  
  751.00000n     28.9882u    271.4627n     29.2597u   -776.2352p  
  752.00000n     28.9965u    255.2558n     29.2518u   -722.3030p  
  753.00000n     29.0048u    239.1126n     29.2439u   -659.0558p  
  754.00000n     29.0130u    222.9694n     29.2360u   -595.8087p  
  755.00000n     29.0213u    206.8284n     29.2281u   -532.5841p  
  756.00000n     29.0261u    193.7147n     29.2198u   -500.6326p  
  757.00000n     29.0309u    180.6009n     29.2115u   -468.6811p  
  758.00000n     29.0357u    167.4872n     29.2032u   -436.7295p  
  759.00000n     29.0405u    154.3735n     29.1948u   -404.7780p  
  760.00000n     29.0453u    141.2597n     29.1865u   -372.8265p  
  761.00000n     29.0501u    128.1460n     29.1782u   -340.8750p  
  762.00000n     29.0549u    115.0322n     29.1699u   -308.9235p  
  763.00000n     29.0597u    101.9185n     29.1616u   -276.9719p  
  764.00000n     29.0645u     88.8047n     29.1533u   -245.0204p  
  765.00000n     29.0693u     75.6910n     29.1449u   -213.0689p  
  766.00000n     29.0693u     68.2554n     29.1376u   -167.9332p  
  767.00000n     29.0694u     60.8198n     29.1302u   -122.7975p  
  768.00000n     29.0694u     53.3843n     29.1228u    -77.6619p  
  769.00000n     29.0695u     45.9487n     29.1154u    -32.5262p  
  770.00000n     29.0695u     38.5131n     29.1081u     12.6095p  
  771.00000n     29.0670u     35.9659n     29.1029u     57.5270p  
  772.00000n     29.0644u     33.4187n     29.0978u    102.4445p  
  773.00000n     29.0618u     30.8714n     29.0927u    147.3620p  
  774.00000n     29.0593u     28.3242n     29.0876u    192.2795p  
  775.00000n     29.0567u     25.7770n     29.0825u    237.1970p  
  776.00000n     29.0513u     28.3693n     29.0797u    284.2530p  
  777.00000n     29.0460u     30.9615n     29.0769u    331.3090p  
  778.00000n     29.0406u     33.5538n     29.0742u    378.3650p  
  779.00000n     29.0353u     36.1461n     29.0714u    425.4210p  
  780.00000n     29.0299u     38.7384n     29.0686u    472.4771p  
  781.00000n     29.0223u     46.2167n     29.0685u    394.5765p  
  782.00000n     29.0147u     53.6951n     29.0684u    316.6760p  
  783.00000n     29.0071u     61.1734n     29.0683u    238.7755p  
  784.00000n     28.9995u     68.6518n     29.0681u    160.8749p  
  785.00000n     28.9919u     76.1301n     29.0680u     82.9744p  
  786.00000n     28.9833u     88.5683n     29.0719u     78.6132p  
  787.00000n     28.9747u    101.0064n     29.0757u     74.2520p  
  788.00000n     28.9661u    113.4446n     29.0795u     69.8907p  
  789.00000n     28.9575u    125.8828n     29.0833u     65.5295p  
  790.00000n     28.9488u    138.3210n     29.0872u     61.1683p  
  791.00000n     28.9402u    150.7591n     29.0910u     56.8070p  
  792.00000n     28.9316u    163.1973n     29.0948u     52.4458p  
  793.00000n     28.9226u    177.3321n     29.0999u     49.6336p  
  794.00000n     28.9130u    193.1636n     29.1062u     48.3705p  
  795.00000n     28.9035u    208.9951n     29.1125u     47.1074p  
  796.00000n     28.8940u    224.8266n     29.1188u     45.8442p  
  797.00000n     28.8845u    240.6580n     29.1251u     44.5811p  
  798.00000n     28.8750u    256.4895n     29.1315u     43.3180p  
  799.00000n     28.8654u    272.3210n     29.1378u     42.0549p  
  800.00000n     28.8563u    288.6424n     29.1449u     35.1643p  
  801.00000n     28.8477u    305.1207n     29.1528u     25.5335p  
  802.00000n     28.8394u    321.3278n     29.1607u     13.3926p  
  803.00000n     28.8311u    337.4712n     29.1686u    661.9153f  
  804.00000n     28.8228u    353.6146n     29.1764u    -12.0688p  
  805.00000n     28.8145u    369.7559n     29.1843u    -24.8087p  
  806.00000n     28.8097u    382.8698n     29.1926u    -50.2446p  
  807.00000n     28.8049u    395.9837n     29.2008u    -75.6806p  
  808.00000n     28.8000u    409.0976n     29.2091u   -101.1166p  
  809.00000n     28.7952u    422.2115n     29.2174u   -126.5525p  
  810.00000n     28.7904u    435.3255n     29.2257u   -151.9885p  
  811.00000n     28.7855u    448.4394n     29.2340u   -177.4244p  
  812.00000n     28.7807u    461.5533n     29.2423u   -202.8604p  
  813.00000n     28.7759u    474.6672n     29.2505u   -228.2963p  
  814.00000n     28.7710u    487.7811n     29.2588u   -253.7323p  
  815.00000n     28.7662u    500.8951n     29.2671u   -279.1682p  
  816.00000n     28.7661u    508.3308n     29.2744u   -325.9859p  
  817.00000n     28.7660u    515.7665n     29.2818u   -372.8036p  
  818.00000n     28.7659u    523.2023n     29.2891u   -419.6212p  
  819.00000n     28.7658u    530.6380n     29.2965u   -466.4389p  
  820.00000n     28.7657u    538.0737n     29.3038u   -513.2566p  
  821.00000n     28.7683u    540.6211n     29.3089u   -578.6173p  
  822.00000n     28.7708u    543.1686n     29.3140u   -643.9781p  
  823.00000n     28.7734u    545.7160n     29.3191u   -709.3388p  
  824.00000n     28.7759u    548.2634n     29.3242u   -774.6996p  
  825.00000n     28.7785u    550.8108n     29.3293u   -840.0603p  
  826.00000n     28.7838u    548.2187n     29.3320u   -907.7523p  
  827.00000n     28.7891u    545.6266n     29.3348u   -975.4443p  
  828.00000n     28.7945u    543.0344n     29.3375u     -1.0431n  
  829.00000n     28.7998u    540.4423n     29.3402u     -1.1108n  
  830.00000n     28.8051u    537.8502n     29.3430u     -1.1785n  
  831.00000n     28.8127u    530.3720n     29.3431u     -1.2365n  
  832.00000n     28.8202u    522.8937n     29.3431u     -1.2944n  
  833.00000n     28.8278u    515.4155n     29.3432u     -1.3524n  
  834.00000n     28.8354u    507.9373n     29.3433u     -1.4103n  
  835.00000n     28.8429u    500.4591n     29.3434u     -1.4683n  
  836.00000n     28.8515u    488.0210n     29.3395u     -1.3693n  
  837.00000n     28.8601u    475.5830n     29.3357u     -1.2703n  
  838.00000n     28.8687u    463.1450n     29.3318u     -1.1714n  
  839.00000n     28.8773u    450.7070n     29.3280u     -1.0724n  
  840.00000n     28.8858u    438.2690n     29.3241u   -973.4669p  
  841.00000n     28.8944u    425.8309n     29.3203u   -874.5086p  
  842.00000n     28.9030u    413.3929n     29.3164u   -775.5503p  
  843.00000n     28.9120u    399.2582n     29.3113u   -718.5781p  
  844.00000n     28.9215u    383.4269n     29.3050u   -703.5921p  
  845.00000n     28.9310u    367.5956n     29.2986u   -688.6061p  
  846.00000n     28.9405u    351.7643n     29.2923u   -673.6201p  
  847.00000n     28.9500u    335.9330n     29.2859u   -658.6341p  
  848.00000n     28.9595u    320.1017n     29.2796u   -643.6481p  
  849.00000n     28.9690u    304.2704n     29.2733u   -628.6621p  
  850.00000n     28.9781u    287.9492n     29.2661u   -613.8009p  
  851.00000n     28.9867u    271.4710n     29.2581u   -600.3827p  
  852.00000n     28.9950u    255.2640n     29.2502u   -570.8727p  
  853.00000n     29.0032u    239.1208n     29.2424u   -537.5805p  
  854.00000n     29.0115u    222.9776n     29.2345u   -504.2884p  
  855.00000n     29.0197u    206.8365n     29.2266u   -470.9923p  
  856.00000n     29.0245u    193.7228n     29.2183u   -432.2430p  
  857.00000n     29.0293u    180.6090n     29.2099u   -393.4938p  
  858.00000n     29.0341u    167.4953n     29.2016u   -354.7446p  
  859.00000n     29.0389u    154.3815n     29.1933u   -315.9953p  
  860.00000n     29.0437u    141.2678n     29.1850u   -277.2461p  
  861.00000n     29.0485u    128.1541n     29.1767u   -238.4969p  
  862.00000n     29.0533u    115.0403n     29.1684u   -199.7477p  
  863.00000n     29.0581u    101.9266n     29.1601u   -160.9984p  
  864.00000n     29.0629u     88.8128n     29.1517u   -122.2492p  
  865.00000n     29.0677u     75.6991n     29.1434u    -83.5000p  
  866.00000n     29.0678u     68.2635n     29.1360u    -36.4230p  
  867.00000n     29.0678u     60.8280n     29.1287u     10.6539p  
  868.00000n     29.0679u     53.3924n     29.1213u     57.7309p  
  869.00000n     29.0680u     45.9568n     29.1139u    104.8078p  
  870.00000n     29.0680u     38.5212n     29.1065u    151.8848p  
  871.00000n     29.0655u     35.9740n     29.1014u    196.3808p  
  872.00000n     29.0629u     33.4268n     29.0963u    240.8768p  
  873.00000n     29.0603u     30.8796n     29.0912u    285.3728p  
  874.00000n     29.0577u     28.3323n     29.0861u    329.8688p  
  875.00000n     29.0552u     25.7851n     29.0810u    374.3648p  
  876.00000n     29.0498u     28.3774n     29.0782u    326.8561p  
  877.00000n     29.0444u     30.9696n     29.0754u    279.3475p  
  878.00000n     29.0391u     33.5618n     29.0726u    231.8388p  
  879.00000n     29.0337u     36.1541n     29.0699u    184.3302p  
  880.00000n     29.0283u     38.7463n     29.0671u    136.8215p  
  881.00000n     29.0207u     46.2247n     29.0670u    148.5171p  
  882.00000n     29.0132u     53.7030n     29.0669u    160.2128p  
  883.00000n     29.0056u     61.1814n     29.0667u    171.9084p  
  884.00000n     28.9980u     68.6598n     29.0666u    183.6040p  
  885.00000n     28.9904u     76.1381n     29.0665u    195.2997p  
  886.00000n     28.9818u     88.5763n     29.0703u    204.2705p  
  887.00000n     28.9732u    101.0145n     29.0742u    213.2413p  
  888.00000n     28.9645u    113.4527n     29.0780u    222.2121p  
  889.00000n     28.9559u    125.8909n     29.0818u    231.1830p  
  890.00000n     28.9473u    138.3291n     29.0857u    240.1538p  
  891.00000n     28.9387u    150.7672n     29.0895u    249.1246p  
  892.00000n     28.9301u    163.2054n     29.0933u    258.0954p  
  893.00000n     28.9210u    177.3402n     29.0984u    240.5403p  
  894.00000n     28.9115u    193.1717n     29.1047u    196.4591p  
  895.00000n     28.9020u    209.0031n     29.1110u    152.3779p  
  896.00000n     28.8925u    224.8346n     29.1173u    108.2968p  
  897.00000n     28.8830u    240.6661n     29.1236u     64.2156p  
  898.00000n     28.8734u    256.4975n     29.1299u     20.1344p  
  899.00000n     28.8639u    272.3290n     29.1362u    -23.9467p  
  900.00000n     28.8548u    288.6503n     29.1434u    -67.8499p  
  901.00000n     28.8462u    305.1286n     29.1513u   -109.3238p  
  902.00000n     28.8378u    321.3357n     29.1592u   -149.0398p  
  903.00000n     28.8295u    337.4791n     29.1670u   -188.3427p  
  904.00000n     28.8213u    353.6225n     29.1749u   -227.6456p  
  905.00000n     28.8130u    369.7637n     29.1827u   -266.9372p  
  906.00000n     28.8081u    382.8776n     29.1910u   -290.6647p  
  907.00000n     28.8033u    395.9915n     29.1993u   -314.3922p  
  908.00000n     28.7985u    409.1055n     29.2076u   -338.1196p  
  909.00000n     28.7937u    422.2194n     29.2159u   -361.8471p  
  910.00000n     28.7888u    435.3333n     29.2242u   -385.5745p  
  911.00000n     28.7840u    448.4472n     29.2324u   -409.3020p  
  912.00000n     28.7792u    461.5611n     29.2407u   -433.0295p  
  913.00000n     28.7743u    474.6751n     29.2490u   -456.7569p  
  914.00000n     28.7695u    487.7890n     29.2573u   -480.4844p  
  915.00000n     28.7647u    500.9029n     29.2656u   -504.2119p  
  916.00000n     28.7646u    508.3387n     29.2729u   -541.2788p  
  917.00000n     28.7645u    515.7744n     29.2803u   -578.3457p  
  918.00000n     28.7644u    523.2101n     29.2876u   -615.4126p  
  919.00000n     28.7643u    530.6459n     29.2950u   -652.4795p  
  920.00000n     28.7642u    538.0816n     29.3023u   -689.5465p  
  921.00000n     28.7668u    540.6290n     29.3074u   -727.0984p  
  922.00000n     28.7693u    543.1764n     29.3125u   -764.6503p  
  923.00000n     28.7718u    545.7237n     29.3176u   -802.2023p  
  924.00000n     28.7744u    548.2711n     29.3226u   -839.7542p  
  925.00000n     28.7769u    550.8185n     29.3277u   -877.3062p  
  926.00000n     28.7823u    548.2264n     29.3305u   -866.1644p  
  927.00000n     28.7876u    545.6343n     29.3332u   -855.0227p  
  928.00000n     28.7929u    543.0422n     29.3360u   -843.8809p  
  929.00000n     28.7983u    540.4502n     29.3387u   -832.7391p  
  930.00000n     28.8036u    537.8581n     29.3415u   -821.5974p  
  931.00000n     28.8112u    530.3798n     29.3415u   -832.6707p  
  932.00000n     28.8187u    522.9016n     29.3416u   -843.7441p  
  933.00000n     28.8263u    515.4234n     29.3417u   -854.8175p  
  934.00000n     28.8339u    507.9452n     29.3418u   -865.8909p  
  935.00000n     28.8414u    500.4670n     29.3419u   -876.9643p  
  936.00000n     28.8500u    488.0289n     29.3380u   -866.9398p  
  937.00000n     28.8586u    475.5909n     29.3342u   -856.9154p  
  938.00000n     28.8672u    463.1529n     29.3303u   -846.8910p  
  939.00000n     28.8758u    450.7149n     29.3265u   -836.8666p  
  940.00000n     28.8843u    438.2768n     29.3226u   -826.8422p  
  941.00000n     28.8929u    425.8388n     29.3188u   -816.8178p  
  942.00000n     28.9015u    413.4008n     29.3149u   -806.7934p  
  943.00000n     28.9105u    399.2661n     29.3098u   -798.7933p  
  944.00000n     28.9200u    383.4348n     29.3035u   -792.8173p  
  945.00000n     28.9295u    367.6035n     29.2971u   -786.8414p  
  946.00000n     28.9390u    351.7721n     29.2908u   -780.8654p  
  947.00000n     28.9485u    335.9408n     29.2844u   -774.8894p  
  948.00000n     28.9580u    320.1095n     29.2781u   -768.9135p  
  949.00000n     28.9675u    304.2781n     29.2718u   -762.9375p  
  950.00000n     28.9766u    287.9569n     29.2645u   -750.2298p  
  951.00000n     28.9851u    271.4787n     29.2566u   -733.5441p  
  952.00000n     28.9935u    255.2718n     29.2487u   -692.7459p  
  953.00000n     29.0017u    239.1286n     29.2409u   -646.2806p  
  954.00000n     29.0100u    222.9854n     29.2330u   -599.8152p  
  955.00000n     29.0182u    206.8444n     29.2251u   -553.3595p  
  956.00000n     29.0230u    193.7307n     29.2168u   -520.3108p  
  957.00000n     29.0278u    180.6169n     29.2084u   -487.2622p  
  958.00000n     29.0326u    167.5032n     29.2001u   -454.2135p  
  959.00000n     29.0374u    154.3894n     29.1918u   -421.1649p  
  960.00000n     29.0422u    141.2757n     29.1835u   -388.1163p  
  961.00000n     29.0470u    128.1619n     29.1752u   -355.0676p  
  962.00000n     29.0518u    115.0482n     29.1669u   -322.0190p  
  963.00000n     29.0566u    101.9344n     29.1586u   -288.9703p  
  964.00000n     29.0614u     88.8207n     29.1502u   -255.9217p  
  965.00000n     29.0662u     75.7069n     29.1419u   -222.8730p  
  966.00000n     29.0663u     68.2713n     29.1345u   -175.0956p  
  967.00000n     29.0663u     60.8358n     29.1272u   -127.3182p  
  968.00000n     29.0664u     53.4002n     29.1198u    -79.5408p  
  969.00000n     29.0665u     45.9646n     29.1124u    -31.7634p  
  970.00000n     29.0665u     38.5290n     29.1050u     16.0140p  
  971.00000n     29.0639u     35.9818n     29.0999u     64.0187p  
  972.00000n     29.0614u     33.4346n     29.0948u    112.0234p  
  973.00000n     29.0588u     30.8873n     29.0897u    160.0282p  
  974.00000n     29.0562u     28.3401n     29.0846u    208.0329p  
  975.00000n     29.0537u     25.7929n     29.0795u    256.0376p  
  976.00000n     29.0483u     28.3851n     29.0767u    306.4096p  
  977.00000n     29.0429u     30.9774n     29.0739u    356.7815p  
  978.00000n     29.0376u     33.5697n     29.0712u    407.1535p  
  979.00000n     29.0322u     36.1620n     29.0684u    457.5255p  
  980.00000n     29.0269u     38.7543n     29.0656u    507.8974p  
  981.00000n     29.0193u     46.2326n     29.0655u    421.4089p  
  982.00000n     29.0117u     53.7109n     29.0654u    334.9203p  
  983.00000n     29.0041u     61.1893n     29.0653u    248.4318p  
  984.00000n     28.9965u     68.6676n     29.0651u    161.9432p  
  985.00000n     28.9889u     76.1459n     29.0650u     75.4547p  
  986.00000n     28.9803u     88.5841n     29.0688u     71.9149p  
[...]
  372.00000n    176.8309u  
  373.00000n    176.8309u  
  374.00000n    176.8309u  
  375.00000n    176.8309u  
  376.00000n    176.8309u  
  377.00000n    176.8308u  
  378.00000n    176.8308u  
  379.00000n    176.8308u  
  380.00000n    176.8308u  
  381.00000n    176.8308u  
  382.00000n    176.8308u  
  383.00000n    176.8308u  
  384.00000n    176.8308u  
  385.00000n    176.8308u  
  386.00000n    176.8308u  
  387.00000n    176.8308u  
  388.00000n    176.8308u  
  389.00000n    176.8308u  
  390.00000n    176.8308u  
  391.00000n    176.8308u  
  392.00000n    176.8308u  
  393.00000n    176.8308u  
  394.00000n    176.8308u  
  395.00000n    176.8308u  
  396.00000n    176.8308u  
  397.00000n    176.8308u  
  398.00000n    176.8308u  
  399.00000n    176.8308u  
  400.00000n    176.8308u  
  401.00000n    176.8308u  
  402.00000n    176.8308u  
  403.00000n    176.8308u  
  404.00000n    176.8308u  
  405.00000n    176.8308u  
  406.00000n    176.8308u  
  407.00000n    176.8308u  
  408.00000n    176.8308u  
  409.00000n    176.8308u  
  410.00000n    176.8308u  
  411.00000n    176.8308u  
  412.00000n    176.8308u  
  413.00000n    176.8308u  
  414.00000n    176.8308u  
  415.00000n    176.8308u  
  416.00000n    176.8308u  
  417.00000n    176.8308u  
  418.00000n    176.8308u  
  419.00000n    176.8308u  
  420.00000n    176.8308u  
  421.00000n    176.8308u  
  422.00000n    176.8308u  
  423.00000n    176.8308u  
  424.00000n    176.8308u  
  425.00000n    176.8308u  
  426.00000n    176.8308u  
  427.00000n    176.8308u  
  428.00000n    176.8308u  
  429.00000n    176.8308u  
  430.00000n    176.8308u  
  431.00000n    176.8308u  
  432.00000n    176.8308u  
  433.00000n    176.8308u  
  434.00000n    176.8308u  
  435.00000n    176.8308u  
  436.00000n    176.8308u  
  437.00000n    176.8308u  
  438.00000n    176.8308u  
  439.00000n    176.8308u  
  440.00000n    176.8308u  
  441.00000n    176.8308u  
  442.00000n    176.8308u  
  443.00000n    176.8308u  
  444.00000n    176.8308u  
  445.00000n    176.8308u  
  446.00000n    176.8308u  
  447.00000n    176.8308u  
  448.00000n    176.8308u  
  449.00000n    176.8308u  
  450.00000n    176.8308u  
  451.00000n    176.8308u  
  452.00000n    176.8308u  
  453.00000n    176.8308u  
  454.00000n    176.8309u  
  455.00000n    176.8309u  
  456.00000n    176.8309u  
  457.00000n    176.8309u  
  458.00000n    176.8309u  
  459.00000n    176.8309u  
  460.00000n    176.8309u  
  461.00000n    176.8309u  
  462.00000n    176.8309u  
  463.00000n    176.8309u  
  464.00000n    176.8309u  
  465.00000n    176.8309u  
  466.00000n    176.8309u  
  467.00000n    176.8309u  
  468.00000n    176.8309u  
  469.00000n    176.8309u  
  470.00000n    176.8309u  
  471.00000n    176.8309u  
  472.00000n    176.8309u  
  473.00000n    176.8309u  
  474.00000n    176.8309u  
  475.00000n    176.8309u  
  476.00000n    176.8309u  
  477.00000n    176.8309u  
  478.00000n    176.8308u  
  479.00000n    176.8308u  
  480.00000n    176.8308u  
  481.00000n    176.8308u  
  482.00000n    176.8308u  
  483.00000n    176.8308u  
  484.00000n    176.8308u  
  485.00000n    176.8308u  
  486.00000n    176.8308u  
  487.00000n    176.8308u  
  488.00000n    176.8308u  
  489.00000n    176.8308u  
  490.00000n    176.8308u  
  491.00000n    176.8308u  
  492.00000n    176.8308u  
  493.00000n    176.8308u  
  494.00000n    176.8308u  
  495.00000n    176.8308u  
  496.00000n    176.8308u  
  497.00000n    176.8308u  
  498.00000n    176.8308u  
  499.00000n    176.8308u  
  500.00000n    176.8308u  
  501.00000n    176.8308u  
  502.00000n    176.8308u  
  503.00000n    176.8308u  
  504.00000n    176.8308u  
  505.00000n    176.8308u  
  506.00000n    176.8308u  
  507.00000n    176.8308u  
  508.00000n    176.8308u  
  509.00000n    176.8308u  
  510.00000n    176.8308u  
  511.00000n    176.8308u  
  512.00000n    176.8308u  
  513.00000n    176.8308u  
  514.00000n    176.8308u  
  515.00000n    176.8308u  
  516.00000n    176.8308u  
  517.00000n    176.8308u  
  518.00000n    176.8308u  
  519.00000n    176.8308u  
  520.00000n    176.8308u  
  521.00000n    176.8308u  
  522.00000n    176.8308u  
  523.00000n    176.8308u  
  524.00000n    176.8308u  
  525.00000n    176.8308u  
  526.00000n    176.8308u  
  527.00000n    176.8308u  
  528.00000n    176.8308u  
  529.00000n    176.8308u  
  530.00000n    176.8308u  
  531.00000n    176.8308u  
  532.00000n    176.8308u  
  533.00000n    176.8308u  
  534.00000n    176.8308u  
  535.00000n    176.8308u  
  536.00000n    176.8308u  
  537.00000n    176.8308u  
  538.00000n    176.8308u  
  539.00000n    176.8308u  
  540.00000n    176.8308u  
  541.00000n    176.8308u  
  542.00000n    176.8308u  
  543.00000n    176.8308u  
  544.00000n    176.8308u  
  545.00000n    176.8308u  
  546.00000n    176.8308u  
  547.00000n    176.8308u  
  548.00000n    176.8308u  
  549.00000n    176.8308u  
  550.00000n    176.8308u  
  551.00000n    176.8308u  
  552.00000n    176.8308u  
  553.00000n    176.8308u  
  554.00000n    176.8308u  
  555.00000n    176.8308u  
  556.00000n    176.8308u  
  557.00000n    176.8308u  
  558.00000n    176.8308u  
  559.00000n    176.8308u  
  560.00000n    176.8308u  
  561.00000n    176.8308u  
  562.00000n    176.8309u  
  563.00000n    176.8309u  
  564.00000n    176.8309u  
  565.00000n    176.8309u  
  566.00000n    176.8309u  
  567.00000n    176.8309u  
  568.00000n    176.8309u  
  569.00000n    176.8309u  
  570.00000n    176.8309u  
  571.00000n    176.8309u  
  572.00000n    176.8309u  
  573.00000n    176.8309u  
  574.00000n    176.8309u  
  575.00000n    176.8309u  
  576.00000n    176.8309u  
  577.00000n    176.8309u  
  578.00000n    176.8309u  
  579.00000n    176.8309u  
  580.00000n    176.8308u  
  581.00000n    176.8308u  
  582.00000n    176.8308u  
  583.00000n    176.8308u  
  584.00000n    176.8308u  
  585.00000n    176.8308u  
  586.00000n    176.8308u  
  587.00000n    176.8308u  
  588.00000n    176.8308u  
  589.00000n    176.8308u  
  590.00000n    176.8308u  
  591.00000n    176.8308u  
  592.00000n    176.8308u  
  593.00000n    176.8308u  
  594.00000n    176.8308u  
  595.00000n    176.8308u  
  596.00000n    176.8308u  
  597.00000n    176.8308u  
  598.00000n    176.8308u  
  599.00000n    176.8308u  
  600.00000n    176.8308u  
  601.00000n    176.8308u  
  602.00000n    176.8308u  
  603.00000n    176.8308u  
  604.00000n    176.8308u  
  605.00000n    176.8308u  
  606.00000n    176.8308u  
  607.00000n    176.8308u  
  608.00000n    176.8308u  
  609.00000n    176.8308u  
  610.00000n    176.8308u  
  611.00000n    176.8308u  
  612.00000n    176.8308u  
  613.00000n    176.8308u  
  614.00000n    176.8308u  
  615.00000n    176.8308u  
  616.00000n    176.8308u  
  617.00000n    176.8308u  
  618.00000n    176.8308u  
  619.00000n    176.8308u  
  620.00000n    176.8308u  
  621.00000n    176.8308u  
  622.00000n    176.8308u  
  623.00000n    176.8308u  
  624.00000n    176.8308u  
  625.00000n    176.8308u  
  626.00000n    176.8308u  
  627.00000n    176.8308u  
  628.00000n    176.8308u  
  629.00000n    176.8308u  
  630.00000n    176.8308u  
  631.00000n    176.8308u  
  632.00000n    176.8308u  
  633.00000n    176.8308u  
  634.00000n    176.8308u  
  635.00000n    176.8308u  
  636.00000n    176.8308u  
  637.00000n    176.8308u  
  638.00000n    176.8308u  
  639.00000n    176.8308u  
  640.00000n    176.8308u  
  641.00000n    176.8308u  
  642.00000n    176.8308u  
  643.00000n    176.8308u  
  644.00000n    176.8308u  
  645.00000n    176.8308u  
  646.00000n    176.8308u  
  647.00000n    176.8308u  
  648.00000n    176.8308u  
  649.00000n    176.8308u  
  650.00000n    176.8308u  
  651.00000n    176.8308u  
  652.00000n    176.8308u  
  653.00000n    176.8308u  
  654.00000n    176.8308u  
  655.00000n    176.8308u  
  656.00000n    176.8308u  
  657.00000n    176.8308u  
  658.00000n    176.8308u  
  659.00000n    176.8308u  
  660.00000n    176.8308u  
  661.00000n    176.8308u  
  662.00000n    176.8308u  
  663.00000n    176.8308u  
  664.00000n    176.8308u  
  665.00000n    176.8308u  
  666.00000n    176.8308u  
  667.00000n    176.8308u  
  668.00000n    176.8308u  
  669.00000n    176.8308u  
  670.00000n    176.8308u  
  671.00000n    176.8308u  
  672.00000n    176.8308u  
  673.00000n    176.8308u  
  674.00000n    176.8308u  
  675.00000n    176.8308u  
  676.00000n    176.8308u  
  677.00000n    176.8308u  
  678.00000n    176.8308u  
  679.00000n    176.8308u  
  680.00000n    176.8308u  
  681.00000n    176.8308u  
  682.00000n    176.8308u  
  683.00000n    176.8308u  
  684.00000n    176.8308u  
  685.00000n    176.8308u  
  686.00000n    176.8308u  
  687.00000n    176.8308u  
  688.00000n    176.8308u  
  689.00000n    176.8308u  
  690.00000n    176.8308u  
  691.00000n    176.8308u  
  692.00000n    176.8308u  
  693.00000n    176.8308u  
  694.00000n    176.8308u  
  695.00000n    176.8308u  
  696.00000n    176.8308u  
  697.00000n    176.8308u  
  698.00000n    176.8308u  
  699.00000n    176.8308u  
  700.00000n    176.8308u  
  701.00000n    176.8308u  
  702.00000n    176.8308u  
  703.00000n    176.8308u  
  704.00000n    176.8308u  
  705.00000n    176.8308u  
  706.00000n    176.8308u  
  707.00000n    176.8308u  
  708.00000n    176.8308u  
  709.00000n    176.8308u  
  710.00000n    176.8308u  
  711.00000n    176.8308u  
  712.00000n    176.8308u  
  713.00000n    176.8308u  
  714.00000n    176.8308u  
  715.00000n    176.8308u  
  716.00000n    176.8308u  
  717.00000n    176.8308u  
  718.00000n    176.8308u  
  719.00000n    176.8308u  
  720.00000n    176.8308u  
  721.00000n    176.8308u  
  722.00000n    176.8308u  
  723.00000n    176.8308u  
  724.00000n    176.8308u  
  725.00000n    176.8308u  
  726.00000n    176.8308u  
  727.00000n    176.8308u  
  728.00000n    176.8308u  
  729.00000n    176.8308u  
  730.00000n    176.8308u  
  731.00000n    176.8308u  
  732.00000n    176.8308u  
  733.00000n    176.8308u  
  734.00000n    176.8308u  
  735.00000n    176.8308u  
  736.00000n    176.8308u  
  737.00000n    176.8308u  
  738.00000n    176.8308u  
  739.00000n    176.8308u  
  740.00000n    176.8308u  
  741.00000n    176.8308u  
  742.00000n    176.8308u  
  743.00000n    176.8308u  
  744.00000n    176.8308u  
  745.00000n    176.8308u  
  746.00000n    176.8308u  
  747.00000n    176.8308u  
  748.00000n    176.8308u  
  749.00000n    176.8308u  
  750.00000n    176.8308u  
  751.00000n    176.8308u  
  752.00000n    176.8308u  
  753.00000n    176.8308u  
  754.00000n    176.8308u  
  755.00000n    176.8308u  
  756.00000n    176.8308u  
  757.00000n    176.8308u  
  758.00000n    176.8308u  
  759.00000n    176.8308u  
  760.00000n    176.8308u  
  761.00000n    176.8308u  
  762.00000n    176.8308u  
  763.00000n    176.8308u  
  764.00000n    176.8308u  
  765.00000n    176.8308u  
  766.00000n    176.8308u  
  767.00000n    176.8308u  
  768.00000n    176.8308u  
  769.00000n    176.8308u  
  770.00000n    176.8308u  
  771.00000n    176.8308u  
  772.00000n    176.8308u  
  773.00000n    176.8308u  
  774.00000n    176.8308u  
  775.00000n    176.8308u  
  776.00000n    176.8308u  
  777.00000n    176.8308u  
  778.00000n    176.8308u  
  779.00000n    176.8308u  
  780.00000n    176.8308u  
  781.00000n    176.8308u  
  782.00000n    176.8308u  
  783.00000n    176.8308u  
  784.00000n    176.8308u  
  785.00000n    176.8308u  
  786.00000n    176.8308u  
  787.00000n    176.8308u  
  788.00000n    176.8308u  
  789.00000n    176.8308u  
  790.00000n    176.8308u  
  791.00000n    176.8308u  
  792.00000n    176.8308u  
  793.00000n    176.8308u  
  794.00000n    176.8308u  
  795.00000n    176.8308u  
  796.00000n    176.8308u  
  797.00000n    176.8308u  
  798.00000n    176.8308u  
  799.00000n    176.8308u  
  800.00000n    176.8308u  
  801.00000n    176.8308u  
  802.00000n    176.8308u  
  803.00000n    176.8308u  
  804.00000n    176.8308u  
  805.00000n    176.8308u  
  806.00000n    176.8308u  
  807.00000n    176.8308u  
  808.00000n    176.8308u  
  809.00000n    176.8308u  
  810.00000n    176.8308u  
  811.00000n    176.8308u  
  812.00000n    176.8308u  
  813.00000n    176.8308u  
  814.00000n    176.8308u  
  815.00000n    176.8308u  
  816.00000n    176.8308u  
  817.00000n    176.8308u  
  818.00000n    176.8308u  
  819.00000n    176.8308u  
  820.00000n    176.8308u  
  821.00000n    176.8308u  
  822.00000n    176.8308u  
  823.00000n    176.8308u  
  824.00000n    176.8308u  
  825.00000n    176.8308u  
  826.00000n    176.8308u  
  827.00000n    176.8308u  
  828.00000n    176.8308u  
  829.00000n    176.8308u  
  830.00000n    176.8308u  
  831.00000n    176.8308u  
  832.00000n    176.8308u  
  833.00000n    176.8308u  
  834.00000n    176.8308u  
  835.00000n    176.8308u  
  836.00000n    176.8308u  
  837.00000n    176.8308u  
  838.00000n    176.8308u  
  839.00000n    176.8308u  
  840.00000n    176.8308u  
  841.00000n    176.8308u  
  842.00000n    176.8308u  
  843.00000n    176.8308u  
  844.00000n    176.8308u  
  845.00000n    176.8308u  
  846.00000n    176.8308u  
  847.00000n    176.8308u  
  848.00000n    176.8308u  
  849.00000n    176.8308u  
  850.00000n    176.8308u  
  851.00000n    176.8308u  
  852.00000n    176.8308u  
  853.00000n    176.8308u  
  854.00000n    176.8308u  
  855.00000n    176.8308u  
  856.00000n    176.8308u  
  857.00000n    176.8308u  
  858.00000n    176.8308u  
  859.00000n    176.8308u  
  860.00000n    176.8308u  
  861.00000n    176.8308u  
  862.00000n    176.8308u  
  863.00000n    176.8308u  
  864.00000n    176.8308u  
  865.00000n    176.8308u  
  866.00000n    176.8308u  
  867.00000n    176.8308u  
  868.00000n    176.8308u  
  869.00000n    176.8308u  
  870.00000n    176.8308u  
  871.00000n    176.8308u  
  872.00000n    176.8308u  
  873.00000n    176.8308u  
  874.00000n    176.8308u  
  875.00000n    176.8308u  
  876.00000n    176.8308u  
  877.00000n    176.8308u  
  878.00000n    176.8308u  
  879.00000n    176.8308u  
  880.00000n    176.8308u  
  881.00000n    176.8308u  
  882.00000n    176.8308u  
  883.00000n    176.8308u  
  884.00000n    176.8308u  
  885.00000n    176.8308u  
  886.00000n    176.8308u  
  887.00000n    176.8308u  
  888.00000n    176.8308u  
  889.00000n    176.8308u  
  890.00000n    176.8308u  
  891.00000n    176.8308u  
  892.00000n    176.8308u  
  893.00000n    176.8308u  
  894.00000n    176.8308u  
  895.00000n    176.8308u  
  896.00000n    176.8308u  
  897.00000n    176.8308u  
  898.00000n    176.8308u  
  899.00000n    176.8308u  
  900.00000n    176.8308u  
  901.00000n    176.8308u  
  902.00000n    176.8308u  
  903.00000n    176.8308u  
  904.00000n    176.8308u  
  905.00000n    176.8308u  
  906.00000n    176.8308u  
  907.00000n    176.8308u  
  908.00000n    176.8308u  
  909.00000n    176.8308u  
  910.00000n    176.8308u  
  911.00000n    176.8308u  
  912.00000n    176.8308u  
  913.00000n    176.8308u  
  914.00000n    176.8308u  
  915.00000n    176.8308u  
  916.00000n    176.8308u  
  917.00000n    176.8308u  
  918.00000n    176.8308u  
  919.00000n    176.8308u  
  920.00000n    176.8308u  
  921.00000n    176.8308u  
  922.00000n    176.8308u  
  923.00000n    176.8308u  
  924.00000n    176.8308u  
  925.00000n    176.8308u  
  926.00000n    176.8308u  
  927.00000n    176.8308u  
  928.00000n    176.8308u  
  929.00000n    176.8308u  
  930.00000n    176.8308u  
  931.00000n    176.8308u  
  932.00000n    176.8308u  
  933.00000n    176.8308u  
  934.00000n    176.8308u  
  935.00000n    176.8308u  
  936.00000n    176.8308u  
  937.00000n    176.8308u  
  938.00000n    176.8308u  
  939.00000n    176.8308u  
  940.00000n    176.8308u  
  941.00000n    176.8308u  
  942.00000n    176.8308u  
  943.00000n    176.8308u  
  944.00000n    176.8308u  
  945.00000n    176.8308u  
  946.00000n    176.8308u  
  947.00000n    176.8308u  
  948.00000n    176.8308u  
  949.00000n    176.8308u  
  950.00000n    176.8308u  
  951.00000n    176.8308u  
  952.00000n    176.8308u  
  953.00000n    176.8308u  
  954.00000n    176.8308u  
  955.00000n    176.8308u  
  956.00000n    176.8308u  
  957.00000n    176.8308u  
  958.00000n    176.8308u  
  959.00000n    176.8308u  
  960.00000n    176.8308u  
  961.00000n    176.8308u  
  962.00000n    176.8308u  
  963.00000n    176.8308u  
  964.00000n    176.8308u  
  965.00000n    176.8308u  
  966.00000n    176.8308u  
  967.00000n    176.8308u  
  968.00000n    176.8308u  
  969.00000n    176.8308u  
  970.00000n    176.8308u  
  971.00000n    176.8308u  
  972.00000n    176.8308u  
  973.00000n    176.8308u  
  974.00000n    176.8308u  
  975.00000n    176.8308u  
  976.00000n    176.8308u  
  977.00000n    176.8308u  
  978.00000n    176.8308u  
  979.00000n    176.8308u  
  980.00000n    176.8308u  
  981.00000n    176.8308u  
  982.00000n    176.8308u  
  983.00000n    176.8308u  
  984.00000n    176.8308u  
  985.00000n    176.8308u  
  986.00000n    176.8308u  
  987.00000n    176.8308u  
  988.00000n    176.8308u  
  989.00000n    176.8308u  
  990.00000n    176.8308u  
  991.00000n    176.8308u  
  992.00000n    176.8308u  
  993.00000n    176.8308u  
  994.00000n    176.8308u  
  995.00000n    176.8308u  
  996.00000n    176.8308u  
  997.00000n    176.8308u  
  998.00000n    176.8308u  
  999.00000n    176.8308u  
    1.00000u    176.8308u  
y

          ***** job concluded
1****** HSPICE -- D-2010.03-SP1 32-BIT (May 26 2010) winnt ******               
 ******  
 * bjt amplifier circuit

  ******  job statistics summary tnom=  25.000 temp=  25.000 *****

  ******  HSPICE Threads Information  ******

  Command Line Threads Count                  :     1
  Available CPU Count                         :    12
  Actual Model Evaluation(Load) Threads Count :     1
  Actual Solver Threads Count                 :     1


  ******  Circuit Statistics  ******
  # nodes       =      21 # elements   =      23
  # resistors   =       9 # capacitors =       0 # inductors   =       0
  # mutual_inds =       0 # vccs       =       0 # vcvs        =       0
  # cccs        =       0 # ccvs       =       0 # volt_srcs   =      11
  # curr_srcs   =       0 # diodes     =       0 # bjts        =       3
  # jfets       =       0 # mosfets    =       0 # U elements  =       0
  # T elements  =       0 # W elements =       0 # B elements  =       0
  # S elements  =       0 # P elements =       0 # va device   =       0


  ******  Runtime Statistics (seconds)  ******

  analysis           time    # points   tot. iter  conv.iter
  op point           0.01           1          12
  transient          0.15        1001         406         203 rev=         0
  readin             0.20
  errchk             0.03
  setup              0.06
  output             0.02


           total memory used          174  kbytes
           total cpu time            0.55 seconds
           total elapsed time        0.84 seconds
           job started at     23:28:21 06/03/2012
           job ended   at     23:28:21 06/03/2012


  lic: Release hspice token(s) 
