 ****** HSPICE -- D-2010.03-SP1 32-BIT (May 26 2010) winnt ******               
  Copyright (C) 2010 Synopsys, Inc. All Rights Reserved.                        
  Unpublished-rights reserved under US copyright laws.
  This program is protected by law and is subject to the 
  terms and conditions of the license agreement from Synopsys.
  Use of this program is your acceptance to be bound by the 
  license agreement. HSPICE is the trademark of Synopsys, Inc.
  Input File: d:\synopsys\hspice\trytry\buffertrans.sp                          
  lic:  
  lic: FLEXlm: v8.5b 
  lic: USER:   zrc                  HOSTNAME: LAPTOP-O4SR7NUK 
  lic: HOSTID: "005056c00001 00ffd46088fe a87eea1f533c 005056c00008 a87eea1f5338
  
  lic: Using FLEXlm license file: 
  lic: C:\flexlm\hspice.dat 
  lic: Checkout 1 hspice 
  lic: License/Maintenance for hspice will expire on 31-dec-2020/2007.9 
  lic: NODE LOCKED license on hostid "005056c00001 00ffd46088fe a87eea1f533c 005
 0
  lic:   
 Init: read install configuration file: D:\synopsys\Hspice_D-2010.03-SP1\meta.cfg
 **warning** (d:\synopsys\hspice\trytry\buffertrans.sp:2) nonstandard number 1e-9s is interpreted as 1e-009
 **warning** (d:\synopsys\hspice\trytry\buffertrans.sp:2) nonstandard number 2e-7s is interpreted as 2e-007
 scientific notation:
 a=10**-18  f=10**-15  p=10**-12  n=10**-9  u=10**-6
 m=10**-3   k=10**3    x=10**6    g=10**9 


 circuit parameter definitions
  parameter          =  value 





 constants  - tnom         kt           vt           gapsi        ni
            298.15000    4.1163e-21    25.69184m     1.11562    1.2565e+16 
1****** HSPICE -- D-2010.03-SP1 32-BIT (May 26 2010) winnt ******               
 ******  
 * non-inverting buffer

  ******  mos   model parameters tnom=  25.000 temp=  25.000 *****
 ***************************************************************************
 *** common model parameters  model name:   0:modp     model type:pmos   ***
 ***************************************************************************
     names  values   units     names  values   units     names  values   units
     -----  ------   -----     -----  ------   -----     -----  ------   -----

   1*** geometry parameters ***
       ld=   0.    meters      lmlt=   1.00                wd=   0.    meters 
     wmlt=   1.00                xl=   0.    meters        xw=   0.    meters 
     lref=   0.    meters      wref=   0.    meters      lref=   0.    meters 
     wref=   0.    meters     xlref=   0.    meters     xwref=   0.    meters 
     lmin=   0.    meters      wmin=   0.    meters      lmax=   0.    meters 
     wmax=   0.    meters 

   2*** threshold voltage parameters ***
      vto=-750.00m volts        nss=   0.    1/cm**2      tpg=   1.00         
      phi= 579.84m volts      gamma=   6.07  v**0.5      bulk=  gnd           
    ngate=   0.    cm**3       nsub= 1.0e+15 1/cm**3   delvto=   0.    volts  

   3*** gate overlap capacitance parameters ***
     cgbo=   0.    f/meter     cgdo=   0.    f/meter     cgso=   0.    f/meter
     meto=   0.    meters 

   4*** gate capacitance parameters ***
    capop=   0.                 cf1=   0.    volts        cf2= 100.00m volts  
      cf3=   1.00  volts        cf4=  50.00               cf5= 666.67m        
      cf6= 500.00               xqc= 500.00m              tox=   1.15u meters 
      cox=  30.00u f/m**2 

   5*** diffusion parasitic parameters ***
      acm=   0.                  is=  10.00f amps          js=   0.    a/m**2 
      jsw=   0.    amp/m        nds=   1.00               cbd=   0.    farad  
      cbs=   0.    farad         cj=  40.00f f/m**2      cjsw=   0.    f/m    
   cjgate=   0.    f/m           mj= 500.00m             mjsw= 330.00m        
       pb= 800.00m volts        php= 800.00m volts         tt=   0.    secs   
     hdif=   0.    meters      ldif=   0.    meters        rd=   0.    ohms   
       rs=   0.    ohms         rsh=   0.    ohms/sq       fc=   0.           
    alpha=   0.                 vcr=   0.    volts      iirat=   0.           
      rdc=   0.    ohms         rsc=   0.    ohms           n=   1.00         
     vnds=  -1.00  volts  

   6*** temperature effect parameters ***
     tlev=   0.               tlevc=   0.                  eg=   1.11  ev     
     gap1= 702.00u ev/deg      gap2=   1.11k deg          xti=   0.           
      bex=  -1.50               tcv=   0.    v/deg k      trd=   0.    /deg   
      trs=   0.    /deg         cta=   0.    /deg         ctp=   0.    /deg   

   7*** noise parameters ***
       kf=   0.                  af=   1.00              nlev=   2.00         
   gdsnoi=   1.00         

   ***  level  1  model parameters  ***

   lambda=  50.00m /v            kp=   1.50u a/v**2 
 ***************************************************************************
 *** common model parameters  model name:   0:modn     model type:nmos   ***
 ***************************************************************************
     names  values   units     names  values   units     names  values   units
     -----  ------   -----     -----  ------   -----     -----  ------   -----

   1*** geometry parameters ***
       ld=   0.    meters      lmlt=   1.00                wd=   0.    meters 
     wmlt=   1.00                xl=   0.    meters        xw=   0.    meters 
     lref=   0.    meters      wref=   0.    meters      lref=   0.    meters 
     wref=   0.    meters     xlref=   0.    meters     xwref=   0.    meters 
     lmin=   0.    meters      wmin=   0.    meters      lmax=   0.    meters 
     wmax=   0.    meters 

   2*** threshold voltage parameters ***
      vto= 830.00m volts        nss=   0.    1/cm**2      tpg=   1.00         
      phi= 579.84m volts      gamma=   6.07  v**0.5      bulk=  gnd           
    ngate=   0.    cm**3       nsub= 1.0e+15 1/cm**3   delvto=   0.    volts  

   3*** gate overlap capacitance parameters ***
     cgbo=   0.    f/meter     cgdo=   0.    f/meter     cgso=   0.    f/meter
     meto=   0.    meters 

   4*** gate capacitance parameters ***
    capop=   0.                 cf1=   0.    volts        cf2= 100.00m volts  
      cf3=   1.00  volts        cf4=  50.00               cf5= 666.67m        
      cf6= 500.00               xqc= 500.00m              tox=   1.15u meters 
      cox=  30.00u f/m**2 

   5*** diffusion parasitic parameters ***
      acm=   0.                  is=  10.00f amps          js=   0.    a/m**2 
      jsw=   0.    amp/m        nds=   1.00               cbd=   0.    farad  
      cbs=   0.    farad         cj=  40.00f f/m**2      cjsw=   0.    f/m    
   cjgate=   0.    f/m           mj= 500.00m             mjsw= 330.00m        
       pb= 800.00m volts        php= 800.00m volts         tt=   0.    secs   
     hdif=   0.    meters      ldif=   0.    meters        rd=   0.    ohms   
       rs=   0.    ohms         rsh=   0.    ohms/sq       fc=   0.           
    alpha=   0.                 vcr=   0.    volts      iirat=   0.           
      rdc=   0.    ohms         rsc=   0.    ohms           n=   1.00         
     vnds=  -1.00  volts  

   6*** temperature effect parameters ***
     tlev=   0.               tlevc=   0.                  eg=   1.11  ev     
     gap1= 702.00u ev/deg      gap2=   1.11k deg          xti=   0.           
      bex=  -1.50               tcv=   0.    v/deg k      trd=   0.    /deg   
      trs=   0.    /deg         cta=   0.    /deg         ctp=   0.    /deg   

   7*** noise parameters ***
       kf=   0.                  af=   1.00              nlev=   2.00         
   gdsnoi=   1.00         

   ***  level  1  model parameters  ***

   lambda=  50.00m /v            kp=   4.50u a/v**2 
  **info** (d:\synopsys\hspice\trytry\buffertrans.sp:12) DC voltage reset to initial transient source value              in source        0:vin                 new dc=  0.1500D+01
1****** HSPICE -- D-2010.03-SP1 32-BIT (May 26 2010) winnt ******               
 ******  
 * non-inverting buffer

  ******  circuit element summary tnom=  25.000 temp=  25.000 *****


 **** resistors

  
 
                                                
 element name        0:rin     0:r2      0:r3   
 node1               0:101     0:104     0:116  
 node2               0:102     0:115     0:117  
 model                                          
 res eff            10.0000   25.0000   35.0000 
 tc1                 0.        0.        0.     
 tc2                 0.        0.        0.     
 scale               1.0000    1.0000    1.0000 
 m                   1.0000    1.0000    1.0000 
 ac                 10.0000   25.0000   35.0000 
 temp               25.0000   25.0000   25.0000 
 l                   0.        0.        0.     
 w                   0.        0.        0.     
 cap                 0.        0.        0.     
 noise            1.000e+00 1.000e+00 1.000e+00 


 **** capacitors
  
 
                                                   
 element name        0:c1       0:c2       0:c3    
 node1               0:104      0:116      0:118   
 node2               0:0        0:0        0:0     
 model                                             
 cap eff           100.0000f  500.0000f    1.0000p 
 tc1                 0.         0.         0.      
 tc2                 0.         0.         0.      
 scale               1.0000     1.0000     1.0000  
 ic                  0.         0.         0.      
 m                   1.0000     1.0000     1.0000  
 w                   0.         0.         0.      
 l                   0.         0.         0.      
 temp               25.0000    25.0000    25.0000  


 **** inductors
  
 
                                        
 element name        0:l1       0:l2    
 node1               0:115      0:117   
 node2               0:116      0:118   
 model                                  
 ind eff           500.0000f  500.0000f 
 res eff             0.         0.      
 tc1                 0.         0.      
 tc2                 0.         0.      
 nt                  1.0000     1.0000  
 ic                  0.         0.      
 m                   1.0000     1.0000  


 **** independent sources

     name         node1        node2      dc volt    ac mag    ac phase    type
  vdd  103               0                    3.0000     0.         0.      dc   
  vin  101               0                    1.5000     0.         0.      sin  
             offset.......     1.5000 
             amplitude....     2.0000 
             frequency....    10.0000x
             delay........     0.     
             theta........     0.     
             phase........     0.     



 **** mosfets
  
 
                                                              
 element name        0:m1       0:m2       0:m3       0:m4    
 drain               0:107      0:107      0:104      0:104   
 gate                0:102      0:102      0:107      0:107   
 source              0:103      0:0        0:103      0:0     
 bulk                0:103      0:0        0:103      0:0     
 model               0:modp     0:modn     0:modp     0:modn  
 w eff              30.0000u   10.0000u   60.0000u   20.0000u 
 l eff             350.0000n  350.0000n  350.0000n  350.0000n 
 rd eff              0.         0.         0.         0.      
 rs eff              0.         0.         0.         0.      
 cdsat              10.0000f   10.0000f   10.0000f   10.0000f 
 cssat              10.0000f   10.0000f   10.0000f   10.0000f 
 capbd               0.         0.         0.         0.      
 capbs               0.         0.         0.         0.      
 temp               25.0000    25.0000    25.0000    25.0000  
 aic                                                          
  
 
1****** HSPICE -- D-2010.03-SP1 32-BIT (May 26 2010) winnt ******               
 ******  
 * non-inverting buffer

  ******  element node table
                                                                                      
 0                c1               c2               c3               vdd              
                  vin              m2:s             m2:b             m4:s             
                  m4:b                                                                
 101              rin              vin                                                
 102              rin              m1:g             m2:g                              
 103              vdd              m1:s             m1:b             m3:s             
                  m3:b                                                                
 104              r2               c1               m3:d             m4:d             
 107              m1:d             m2:d             m3:g             m4:g             
 115              r2               l1                                                 
 116              r3               c2               l1                                
 117              r3               l2                                                 
 118              c3               l2                                                 
 **info** set option symb=1 internally to help for convergence.
 *****************************************************************
 ******  option summary
 ******
 runlvl  = 3         bypass  = 2         

 **info** rebuilding matrix with pivot option

1****** HSPICE -- D-2010.03-SP1 32-BIT (May 26 2010) winnt ******               
 ******  
 * non-inverting buffer

  ******  operating point information tnom=  25.000 temp=  25.000 *****
 ***** operating point status is all       simulation time is     0.     
    node    =voltage      node    =voltage      node    =voltage

 +0:101     =   1.5000  0:102     =   1.5000  0:103     =   3.0000 
 +0:104     =  13.9329n 0:107     =   2.5131  0:115     =  13.9329n
 +0:116     =  13.9329n 0:117     =  13.9329n 0:118     =  13.9329n


 ****  voltage sources

 subckt                        
 element  0:vdd      0:vin     
  volts      3.0000     1.5000 
  current  -32.4840u    0.     
  power     97.4519u    0.     

     total voltage source power dissipation=   97.4519u       watts



 **** resistors

 subckt                                   
 element  0:rin      0:r2       0:r3      
  r value   10.0000    25.0000    35.0000 
  v drop  -222.0446a    0.         0.     
  current  -22.2045a    0.         0.     
  power      0.         0.         0.     



 **** mosfets


 subckt                                              
 element  0:m1       0:m2       0:m3       0:m4      
 model    0:modp     0:modn     0:modp     0:modn    
 region       Linear   Saturati     Cutoff     Linear
  id       -32.4839u   32.4839u    0.         6.0300p
  ibs        0.         0.         0.         0.     
  ibd        4.8693f  -25.1307f   30.0000f -1.393e-22
  vgs       -1.5000     1.5000  -486.9330m    2.5131 
  vds     -486.9330m    2.5131    -3.0000    13.9329n
  vbs        0.         0.         0.         0.     
  vth     -750.0000m  830.0000m -750.0000m  830.0000m
  vdsat   -486.9330m  670.0000m    0.        13.9329n
  vod     -750.0000m  670.0000m  263.0670m    1.6831 
  beta     131.7017u  144.7269u  257.1429u  257.1429u
  gam eff    6.0732     6.0732     6.0732     6.0732 
  gm        64.1299u   96.9670u    0.         3.5827p
  gds       36.2320u    1.4429u    0.       432.7887u
  gmb      255.7380u  386.6861u    0.        14.2873p
  cdtot      0.         0.         0.         0.     
  cgtot    210.0011a   70.0004a  324.7275a  140.0007a
  cstot    210.0011a   70.0004a   38.9039a  140.0007a
  cbtot      0.         0.       285.8237a    0.     
  cgs      210.0011a   70.0004a   38.9039a  140.0007a
  cgd        0.         0.         0.         0.     



 ******  
 * non-inverting buffer

  ******  transient analysis tnom=  25.000 temp=  25.000 *****
x

        time    current 1    current 2    current      current    
                    m1           m1           m2           m3     
    0.          -32.4839u      0.          32.4839u     -6.0300p  
    1.00000n    -28.3860u     26.3375n     28.5541u   -528.1703u  
    2.00000n    -18.3311u     26.1815n     18.4532u   -624.0939u  
    3.00000n    -10.4812u     25.9319n     10.3997u   -663.7118u  
    4.00000n     -5.0210u     25.5568n      5.1101u   -632.5894u  
    5.00000n     -2.4393u     24.6456n      2.4834u   -554.1839u  
    6.00000n     -1.0167u     23.5032n    898.1400n   -458.3455u  
    7.00000n     -6.0320p     22.4075n   -192.1250n   -366.7582u  
    8.00000n     -6.0305p     21.4288n    -42.2856n   -285.8209u  
    9.00000n     -6.0291p     20.4501n    107.5538n   -204.8836u  
   10.00000n     -6.0291p     21.7022n     96.8139n   -154.7004u  
   11.00000n     -6.0297p     23.9221n     16.4102n   -117.8591u  
   12.00000n     -6.0304p     26.1420n    -63.9934n    -81.0178u  
   13.00000n     -6.0310p     28.3619n   -144.3970n    -44.1766u  
   14.00000n     -6.0300p     25.2314n     -2.0566n    -32.3806u  
   15.00000n     -6.0290p     21.9721n    145.6491n    -21.1878u  
   16.00000n     -6.0294p     21.5249n     82.6000n    -16.9027u  
   17.00000n     -6.0299p     21.0777n     19.5509n    -12.6176u  
   18.00000n     -6.0300p     17.1607n      5.1174n     -9.2299u  
   19.00000n     -6.0300p     12.4206n      2.2167n     -6.0550u  
   20.00000n     -6.0300p     10.6001n      1.8499n     -4.9089u  
   21.00000n     -6.0300p      8.9746n      1.6525n     -3.8983u  
   22.00000n     -6.0300p      7.3492n      1.4551n     -2.8878u  
   23.00000n     -6.0300p      5.7238n      1.2576n     -1.8772u  
   24.00000n     -6.0300p      4.0983n      1.0602n   -866.6943n  
   25.00000n     -6.0300p      2.4729n    862.7532p    143.8531n  
   26.00000n     -6.0300p    744.9557p    715.4605p    137.3596n  
   27.00000n     -6.0300p   -983.0013p    568.1678p    130.8660n  
   28.00000n     -6.0300p     -2.7110n    420.8751p    124.3724n  
   29.00000n     -6.0300p     -4.4389n    273.5825p    117.8789n  
   30.00000n     -6.0300p     -6.1669n    126.2898p    111.3853n  
   31.00000n     -6.0300p    -15.6686n     75.2667p     92.7572n  
   32.00000n     -6.0300p    -21.7934n     29.3273p     74.3688n  
   33.00000n     -6.0300p    -20.3014n     -5.1455p     56.5212n  
   34.00000n     -6.0300p    -18.8094n    -39.6183p     38.6736n  
   35.00000n     -6.0300p    -17.3174n    -74.0911p     20.8260n  
   36.00000n     -6.0300p    -18.6873n    -80.1046p     18.1648n  
   37.00000n     -6.0300p    -20.0573n    -86.1181p     15.5035n  
   38.00000n     -6.0300p    -21.4272n    -92.1317p     12.8423n  
   39.00000n     -6.0301p    -22.7971n    -98.1452p     10.1811n  
   40.00000n     -6.0301p    -24.1670n   -104.1588p      7.5199n  
   41.00000n     -6.0301p    -21.0478n    -16.0565p      5.5286n  
   42.00000n   -289.7308n    -18.3663n    288.4552n      3.4884n  
   43.00000n     -3.2848u    -19.7718n      3.2698u    991.7890p  
   44.00000n     -6.2800u    -21.1774n      6.2511u     -1.5048n  
   45.00000n     -9.2751u    -22.5830n      9.2325u     -4.0014n  
   46.00000n    -12.2702u    -23.9885n     12.2138u     -6.4979n  
   47.00000n    -15.2653u    -25.3941n     15.1951u     -8.9945n  
   48.00000n    -18.3017u    -26.7838n     18.2177u    -11.8491n  
   49.00000n    -28.5165u    -26.3476n     28.3380u    -93.2667n  
   50.00000n    -35.1628u    -26.3432n     32.3576u     -1.0816u  
   51.00000n    -21.8223u    -26.3365n     21.7463u   -833.4978f  
   52.00000n    -13.4279u    -26.1771n     13.3980u     -1.5741p  
   53.00000n     -6.8495u    -25.9196n      6.8392u     -2.3307p  
   54.00000n     -2.7725u    -25.7580n      2.7011u     -3.0570p  
   55.00000n     -1.3093u    -26.1610n      1.3524u     -3.6753p  
   56.00000n    153.9503n    -26.5639n      3.5789n     -4.2937p  
   57.00000n     54.9821n    -24.2935n      6.0305p     -4.6652p  
   58.00000n    -48.1353n    -22.0161n      6.0296p     -5.0360p  
   59.00000n    -91.6423n    -20.6538n      6.0292p     -5.3259p  
   60.00000n    -35.6936n    -20.8185n      6.0296p     -5.4810p  
   61.00000n     20.2552n    -20.9833n      6.0300p     -5.6360p  
   62.00000n     76.2039n    -21.1480n      6.0304p     -5.7910p  
   63.00000n     41.1007n    -19.0432n      6.0302p     -5.8644p  
   64.00000n    -24.4220n    -16.1800n      6.0298p     -5.9105p  
   65.00000n    -89.9447n    -13.3169n      6.0295p     -5.9566p  
   66.00000n    -49.5662n    -13.6108n      6.0297p     -5.9708p  
   67.00000n     -9.1877n    -13.9048n      6.0299p     -5.9851p  
   68.00000n     -4.1493n    -11.5079n      6.0300p     -5.9966p  
   69.00000n     -9.3747n     -8.3295n      6.0299p     -6.0074p  
   70.00000n     -9.1678n     -7.0316n      6.0299p     -6.0119p  
   71.00000n     -8.3088n     -5.9595n      6.0300p     -6.0157p  
   72.00000n     -7.4498n     -4.8873n      6.0300p     -6.0196p  
   73.00000n     -6.5907n     -3.8152n      6.0300p     -6.0234p  
   74.00000n     -5.7317n     -2.7431n      6.0300p     -6.0272p  
   75.00000n     -4.8727n     -1.6710n      6.0300p     -6.0310p  
   76.00000n     -3.9099n   -514.5154p      6.0300p     -6.0309p  
   77.00000n     -2.9471n    641.9308p      6.0300p     -6.0308p  
   78.00000n     -1.9843n      1.7984n      6.0300p     -6.0307p  
   79.00000n     -1.0216n      2.9548n      6.0300p     -6.0306p  
   80.00000n    -58.7839p      4.1113n      6.0300p     -6.0306p  
   81.00000n   -134.4117p     10.4440n      6.0300p     -6.0304p  
   82.00000n   -149.2761p     14.5257n      6.0301p     -6.0303p  
   83.00000n    -27.1385p     13.5321n      6.0301p     -6.0302p  
   84.00000n     94.9991p     12.5385n      6.0301p     -6.0301p  
   85.00000n    217.1367p     11.5449n      6.0301p     -6.0300p  
   86.00000n    238.0939p     12.9525n      6.0301p     -6.0300p  
   87.00000n    259.0511p     14.3600n      6.0301p     -6.0300p  
   88.00000n    280.0083p     15.7676n      6.0301p     -6.0300p  
   89.00000n    300.9655p     17.1752n      6.0301p     -6.0300p  
   90.00000n    321.9227p     18.5827n      6.0302p     -6.0300p  
   91.00000n     59.8598p     22.4056n      6.0302p     -6.0300p  
   92.00000n   -204.2917n     25.8863n    204.7697n     -6.0300p  
   93.00000n     -2.3144u     26.1713n      2.3215u     -6.0300p  
   94.00000n     -4.4244u     26.4563n      4.4383u     -6.0300p  
   95.00000n     -6.5345u     26.7413n      6.5551u     -6.0300p  
   96.00000n     -8.6446u     27.0262n      8.6719u     -6.0300p  
   97.00000n    -10.7546u     27.3112n     10.7887u     -6.0300p  
   98.00000n    -12.9123u     27.5864n     12.9535u     -6.0300p  
   99.00000n    -22.5960u     26.3157n     22.7227u     -6.0300p  
  100.00000n    -32.2797u     25.0449n     32.4919u     -6.0301p  
  101.00000n    -28.3754u     26.3317n     28.9633u   -524.3289u  
  102.00000n    -18.4035u     26.1747n     18.6402u   -621.3984u  
  103.00000n    -10.5309u     25.9162n     10.6826u   -659.3000u  
  104.00000n     -5.1417u     25.5577n      5.1072u   -627.5525u  
  105.00000n     -1.9019u     25.0226n      1.7446u   -554.8476u  
  106.00000n   -349.7630n     24.3034n    585.2880n   -455.9501u  
  107.00000n     -6.0284p     22.3236n    127.9070n   -366.5838u  
  108.00000n     -6.0309p     19.9770n   -125.2803n   -279.9901u  
  109.00000n     -6.0329p     18.2924n   -328.2649n   -197.8733u  
  110.00000n     -6.0310p     22.2739n   -101.4637n   -154.0825u  
  111.00000n     -6.0292p     26.2554n    125.3374n   -110.2916u  
  112.00000n     -6.0273p     30.1869n    348.6980n    -66.7148u  
  113.00000n     -6.0290p     27.4859n    116.0008n    -51.5022u  
  114.00000n     -6.0307p     24.7848n   -116.6965n    -36.2897u  
  115.00000n     -6.0323p     22.0838n   -349.3938n    -21.0771u  
  116.00000n     -6.0312p     21.6194n   -180.6764n    -16.7813u  
  117.00000n     -6.0301p     21.1550n    -11.9591n    -12.4855u  
  118.00000n     -6.0300p     16.8742n      1.7391n     -9.1884u  
  119.00000n     -6.0300p     12.4349n      3.8675n     -6.0563u  
  120.00000n     -6.0300p     10.7529n      3.3547n     -4.9599u  
  121.00000n     -6.0300p      9.0709n      2.8419n     -3.8635u  
  122.00000n     -6.0300p      7.3888n      2.3291n     -2.7671u  
  123.00000n     -6.0300p      5.7068n      1.8163n     -1.6707u  
  124.00000n     -6.0300p      4.0248n      1.3035n   -574.3573n  
  125.00000n     -6.0300p      2.3427n    790.7470p    522.0250n  
  126.00000n     -6.0300p    640.8088p    669.6150p    466.6863n  
  127.00000n     -6.0300p     -1.0611n    548.4829p    411.3477n  
  128.00000n     -6.0300p     -2.7630n    427.3509p    356.0091n  
  129.00000n     -6.0300p     -4.4650n    306.2188p    300.6705n  
  130.00000n     -6.0300p     -6.1669n    185.0868p    245.3319n  
  131.00000n     -6.0300p    -15.6677n     87.4577p    190.5664n  
  132.00000n     -6.0300p    -21.7941n      9.8559p    142.1412n  
  133.00000n     -6.0300p    -20.3019n    -22.5289p    108.0309n  
  134.00000n     -6.0300p    -18.8096n    -54.9138p     73.9205n  
  135.00000n     -6.0300p    -17.3174n    -87.2986p     39.8102n  
  136.00000n     -6.0300p    -18.6873n    -91.8985p     34.7216n  
  137.00000n     -6.0300p    -20.0572n    -96.4983p     29.6330n  
  138.00000n     -6.0300p    -21.4272n   -101.0982p     24.5444n  
  139.00000n     -6.0301p    -22.7971n   -105.6980p     19.4559n  
  140.00000n     -6.0301p    -24.1670n   -110.2979p     14.3673n  
  141.00000n     -6.0301p    -21.0478n    -14.9856p     10.5682n  
  142.00000n   -289.7233n    -18.3663n    288.4551n      6.8389n  
  143.00000n     -3.2849u    -19.7718n      3.2698u      3.7610n  
  144.00000n     -6.2800u    -21.1774n      6.2511u    683.0800p  
  145.00000n     -9.2751u    -22.5830n      9.2325u     -2.3948n  
  146.00000n    -12.2702u    -23.9885n     12.2138u     -5.4727n  
  147.00000n    -15.2654u    -25.3941n     15.1952u     -8.5507n  
  148.00000n    -18.3017u    -26.7838n     18.2177u    -11.9819n  
  149.00000n    -28.5165u    -26.3476n     28.3380u    -93.3515n  
  150.00000n    -35.1628u    -26.3432n     32.3576u     -1.0816u  
  151.00000n    -21.8223u    -26.3365n     21.7463u   -833.4965f  
  152.00000n    -13.4279u    -26.1771n     13.3980u     -1.5741p  
  153.00000n     -6.8495u    -25.9196n      6.8392u     -2.3307p  
  154.00000n     -2.7726u    -25.7581n      2.7012u     -3.0570p  
  155.00000n     -1.3093u    -26.1611n      1.3524u     -3.6753p  
  156.00000n    154.0115n    -26.5641n      3.5248n     -4.2937p  
  157.00000n     54.9790n    -24.2935n      6.0305p     -4.6652p  
  158.00000n    -48.1398n    -22.0159n      6.0296p     -5.0360p  
  159.00000n    -91.6399n    -20.6538n      6.0292p     -5.3259p  
  160.00000n    -35.6906n    -20.8186n      6.0296p     -5.4810p  
  161.00000n     20.2586n    -20.9834n      6.0300p     -5.6360p  
  162.00000n     76.2078n    -21.1482n      6.0304p     -5.7910p  
  163.00000n     41.0981n    -19.0431n      6.0302p     -5.8644p  
  164.00000n    -24.4236n    -16.1800n      6.0298p     -5.9105p  
  165.00000n    -89.9453n    -13.3168n      6.0295p     -5.9566p  
  166.00000n    -49.5665n    -13.6108n      6.0297p     -5.9708p  
  167.00000n     -9.1876n    -13.9048n      6.0299p     -5.9851p  
  168.00000n     -4.1493n    -11.5079n      6.0300p     -5.9966p  
  169.00000n     -9.3747n     -8.3295n      6.0299p     -6.0074p  
  170.00000n     -9.1678n     -7.0316n      6.0299p     -6.0119p  
  171.00000n     -8.3088n     -5.9595n      6.0300p     -6.0157p  
  172.00000n     -7.4498n     -4.8873n      6.0300p     -6.0196p  
  173.00000n     -6.5907n     -3.8152n      6.0300p     -6.0234p  
  174.00000n     -5.7317n     -2.7431n      6.0300p     -6.0272p  
  175.00000n     -4.8727n     -1.6710n      6.0300p     -6.0310p  
  176.00000n     -3.9099n   -514.5125p      6.0300p     -6.0309p  
  177.00000n     -2.9471n    641.9330p      6.0300p     -6.0308p  
  178.00000n     -1.9843n      1.7984n      6.0300p     -6.0307p  
  179.00000n     -1.0216n      2.9548n      6.0300p     -6.0306p  
  180.00000n    -58.7840p      4.1113n      6.0300p     -6.0306p  
  181.00000n   -134.4117p     10.4440n      6.0300p     -6.0304p  
  182.00000n   -149.2760p     14.5257n      6.0301p     -6.0303p  
  183.00000n    -27.1384p     13.5321n      6.0301p     -6.0302p  
  184.00000n     94.9992p     12.5385n      6.0301p     -6.0301p  
  185.00000n    217.1367p     11.5449n      6.0301p     -6.0300p  
  186.00000n    238.0939p     12.9525n      6.0301p     -6.0300p  
  187.00000n    259.0511p     14.3600n      6.0301p     -6.0300p  
  188.00000n    280.0083p     15.7676n      6.0301p     -6.0300p  
  189.00000n    300.9655p     17.1752n      6.0301p     -6.0300p  
  190.00000n    321.9227p     18.5827n      6.0302p     -6.0300p  
  191.00000n     59.8598p     22.4056n      6.0302p     -6.0300p  
  192.00000n   -204.2917n     25.8863n    204.7697n     -6.0300p  
  193.00000n     -2.3144u     26.1713n      2.3215u     -6.0300p  
  194.00000n     -4.4244u     26.4563n      4.4383u     -6.0300p  
  195.00000n     -6.5345u     26.7413n      6.5551u     -6.0300p  
  196.00000n     -8.6446u     27.0262n      8.6719u     -6.0300p  
  197.00000n    -10.7546u     27.3112n     10.7887u     -6.0300p  
  198.00000n    -12.9123u     27.5864n     12.9535u     -6.0300p  
  199.00000n    -22.5960u     26.3157n     22.7227u     -6.0300p  
  200.00000n    -32.2797u     25.0449n     32.4919u     -6.0301p  
y
x

        time    current      current      current      current    
                    m4           rin          r2           r3     
    0.            6.0300p    -22.2045a      0.           0.       
    1.00000n    330.9943f     35.1167n    494.5596u    328.0359u  
    2.00000n      1.0716p     34.9087n    583.8192u    388.8694u  
    3.00000n      1.8857p     34.5759n    623.0923u    415.1043u  
    4.00000n      2.6931p     34.0757n    592.6931u    395.6982u  
    5.00000n      3.3758p     33.2036n    519.3492u    346.9984u  
    6.00000n      4.0037p     32.1750n    430.4833u    287.6123u  
    7.00000n      4.5530p     30.9211n    345.0539u    230.5744u  
    8.00000n      4.9053p     29.1026n    268.2336u    179.4192u  
    9.00000n      5.2577p     27.2841n    191.4133u    128.2641u  
   10.00000n      5.4605p     28.3332n    144.4890u     96.8466u  
   11.00000n      5.5985p     30.6263n    110.5343u     73.9919u  
   12.00000n      5.7364p     32.9194n     76.5797u     51.1372u  
   13.00000n      5.8743p     35.2124n     42.6251u     28.2825u  
   14.00000n      5.9163p     30.8271n     30.4153u     20.3624u  
   15.00000n      5.9559p     26.2809n     18.7293u     12.8019u  
   16.00000n      5.9709p     25.9962n     15.3093u     10.3908u  
   17.00000n      5.9860p     25.7114n     11.8894u      7.9796u  
   18.00000n      5.9978p     20.9742n      8.7573u      5.8637u  
   19.00000n      6.0089p     15.1808n      5.6936u      3.8179u  
   20.00000n      6.0129p     12.9556n      4.6112u      3.0915u  
   21.00000n      6.0164p     10.9690n      3.6612u      2.4533u  
   22.00000n      6.0199p      8.9824n      2.7113u      1.8151u  
   23.00000n      6.0235p      6.9957n      1.7613u      1.1769u  
   24.00000n      6.0270p      5.0091n    811.3548n    538.7325n  
   25.00000n      6.0305p      3.0225n   -138.5988n    -99.4570n  
   26.00000n      6.0305p    910.5023p   -120.5821n    -86.0655n  
   27.00000n      6.0305p     -1.2014n   -102.5654n    -72.6740n  
   28.00000n      6.0304p     -3.3134n    -84.5486n    -59.2825n  
   29.00000n      6.0304p     -5.4253n    -66.5319n    -45.8909n  
   30.00000n      6.0304p     -7.5373n    -48.5152n    -32.4994n  
   31.00000n      6.0303p    -19.1503n    -63.8750n    -42.2274n  
   32.00000n      6.0303p    -26.6361n    -69.4530n    -45.7461n  
   33.00000n      6.0302p    -24.8126n    -52.9674n    -35.2594n  
   34.00000n      6.0301p    -22.9892n    -36.4818n    -24.7727n  
   35.00000n      6.0301p    -21.1658n    -19.9962n    -14.2860n  
   36.00000n      6.0301p    -23.0049n    -17.4100n    -12.3753n  
   37.00000n      6.0301p    -24.8440n    -14.8238n    -10.4645n  
   38.00000n      6.0300p    -26.6832n    -12.2376n     -8.5538n  
   39.00000n      6.0300p    -28.5223n     -9.6514n     -6.6431n  
   40.00000n      6.0300p    -30.3614n     -7.0652n     -4.7324n  
   41.00000n      6.0300p    -28.5173n     -5.1954n     -3.4778n  
   42.00000n      6.0300p    -27.0081n     -3.2800n     -2.1940n  
   43.00000n      6.0300p    -28.6267n   -938.4964p   -636.6791p  
   44.00000n      6.0300p    -30.2452n      1.4030n    920.6455p  
   45.00000n      6.0300p    -31.8637n      3.7445n      2.4780n  
   46.00000n      6.0300p    -33.4823n      6.0860n      4.0353n  
   47.00000n      6.0300p    -35.1008n      8.4275n      5.5926n  
   48.00000n      6.0300p    -36.6875n     11.1020n      7.3671n  
   49.00000n      6.0301p    -35.1302n     87.1312n     57.2675n  
   50.00000n    374.8351u    -35.1242n   -346.5951u   -223.5996u  
   51.00000n    551.6081u    -35.1154n   -516.7389u   -343.9122u  
   52.00000n    601.6782u    -34.9028n   -563.8640u   -375.6139u  
   53.00000n    611.3444u    -34.5594n   -573.2065u   -382.2281u  
   54.00000n    570.7118u    -34.2168n   -535.2027u   -357.4040u  
   55.00000n    486.7731u    -34.2374n   -456.6281u   -305.0312u  
   56.00000n    402.8343u    -34.2579n   -378.0535u   -252.6583u  
   57.00000n    324.3089u    -31.7503n   -304.3301u   -203.4725u  
   58.00000n    245.7979u    -29.2360n   -230.6196u   -154.2952u  
   59.00000n    182.0151u    -28.0157n   -170.7623u   -114.3179u  
   60.00000n    142.8054u    -28.9545n   -134.0180u    -89.6902u  
   61.00000n    103.5956u    -29.8933n    -97.2737u    -65.0625u  
   62.00000n     64.3859u    -30.8321n    -60.5294u    -40.4348u  
   63.00000n     45.2086u    -28.2444n    -42.4870u    -28.3968u  
   64.00000n     32.7240u    -24.4786n    -30.6928u    -20.5648u  
   65.00000n     20.2394u    -20.7129n    -18.8985u    -12.7328u  
   66.00000n     16.3323u    -20.8223n    -15.2760u    -10.2706u  
   67.00000n     12.4253u    -20.9317n    -11.6535u     -7.8084u  
   68.00000n      9.2410u    -17.2618n     -8.6748u     -5.8062u  
   69.00000n      6.2665u    -12.4942n     -5.8830u     -3.9376u  
   70.00000n      5.0051u    -10.5474n     -4.7353u     -3.1695u  
   71.00000n      3.9492u     -8.9392n     -3.7850u     -2.5334u  
   72.00000n      2.8934u     -7.3310n     -2.8347u     -1.8974u  
   73.00000n      1.8376u     -5.7228n     -1.8844u     -1.2613u  
   74.00000n    781.7181n     -4.1146n   -934.1369n   -625.2876n  
   75.00000n   -274.1189n     -2.5064n     16.1517n     10.7531n  
   76.00000n   -250.6489n   -771.7719p     31.1314n     20.6484n  
   77.00000n   -227.1789n    962.8946p     46.1112n     30.5438n  
   78.00000n   -203.7090n      2.6976n     61.0910n     40.4391n  
   79.00000n   -180.2390n      4.4322n     76.0708n     50.3344n  
   80.00000n   -156.7690n      6.1669n     91.0506n     60.2297n  
   81.00000n   -118.2623n     15.6669n     95.8902n     63.7639n  
   82.00000n    -84.0066n     21.7900n     90.4739n     60.4513n  
   83.00000n    -59.3359n     20.2992n     61.9337n     41.7010n  
   84.00000n    -34.6652n     18.8083n     33.3935n     22.9507n  
   85.00000n     -9.9945n     17.3175n      4.8534n      4.2005n  
   86.00000n     -8.7145n     19.3099n      4.5561n      3.8076n  
   87.00000n     -7.4345n     21.3023n      4.2588n      3.4148n  
   88.00000n     -6.1545n     23.2946n      3.9615n      3.0219n  
   89.00000n     -4.8744n     25.2870n      3.6642n      2.6291n  
   90.00000n     -3.5944n     27.2794n      3.3669n      2.2363n  
   91.00000n     -2.6695n     30.1169n      2.5102n      1.6807n  
   92.00000n     -1.7663n     32.7265n      1.6726n      1.1358n  
   93.00000n     -1.0664n     33.2091n      1.0140n    691.4678p  
   94.00000n   -366.4063p     33.6916n    355.3691p    247.1060p  
   95.00000n    333.5416p     34.1742n   -303.2514p   -197.2558p  
   96.00000n      1.0335n     34.6567n   -961.8719p   -641.6177p  
   97.00000n      1.7334n     35.1393n     -1.6205n     -1.0860n  
   98.00000n      2.5312n     35.6155n     -2.3705n     -1.5904n  
   99.00000n     18.8044n     35.0933n    -17.5741n    -11.5988n  
  100.00000n     35.0776n     34.5712n    -32.7777n    -21.6073n  
  101.00000n   -187.5001n     35.1090n    491.5303u    328.5499u  
  102.00000n    -80.8768n     34.8996n    582.5871u    388.7226u  
  103.00000n    -62.7677n     34.5549n    618.2424u    412.5955u  
  104.00000n     32.6128n     34.0770n    588.4387u    392.4545u  
  105.00000n     87.7696n     33.3884n    520.2366u    346.7732u  
  106.00000n   -146.1610n     32.4821n    428.2246u    287.4142u  
  107.00000n    -83.4740n     30.2977n    344.2370u    230.8668u  
  108.00000n     65.4957n     27.7415n    262.5837u    175.1374u  
  109.00000n    185.4518n     25.8251n    185.2149u    122.4930u  
  110.00000n     57.0229n     29.3868n    144.5264u     96.2605u  
  111.00000n    -71.4060n     32.9484n    103.8379u     70.0280u  
  112.00000n   -197.8831n     36.4609n     63.3439u     43.9107u  
  113.00000n    -65.6270n     33.4690n     48.6463u     33.0740u  
  114.00000n     66.6290n     30.4771n     33.9487u     22.2373u  
  115.00000n    198.8851n     27.4851n     19.2510u     11.4006u  
  116.00000n    102.7521n     26.6596n     15.4759u      9.5870u  
  117.00000n      6.6190n     25.8341n     11.7007u      7.7734u  
  118.00000n      5.9980p     20.6229n      8.6257u      5.7739u  
  119.00000n      6.0089p     15.2363n      5.6900u      3.8188u  
  120.00000n      6.0127p     13.1678n      4.7096u      3.1592u  
  121.00000n      6.0166p     11.0993n      3.7291u      2.4996u  
  122.00000n      6.0204p      9.0307n      2.7487u      1.8400u  
  123.00000n      6.0242p      6.9622n      1.7683u      1.1805u  
  124.00000n      6.0280p      4.8937n    787.8671n    520.8720n  
  125.00000n      6.0318p      2.8252n   -192.5592n   -138.7160n  
  126.00000n      6.0316p    752.6974p   -188.4019n   -133.8043n  
  127.00000n      6.0314p     -1.3198n   -184.2446n   -128.8926n  
  128.00000n      6.0312p     -3.3923n   -180.0873n   -123.9809n  
  129.00000n      6.0310p     -5.4648n   -175.9300n   -119.0692n  
  130.00000n      6.0309p     -7.5373n   -171.7726n   -114.1575n  
  131.00000n      6.0307p    -19.1492n   -154.9094n   -103.2871n  
  132.00000n      6.0305p    -26.6369n   -133.4024n    -89.2025n  
  133.00000n      6.0304p    -24.8132n   -101.4108n    -67.8610n  
  134.00000n      6.0303p    -22.9895n    -69.4193n    -46.5195n  
  135.00000n      6.0301p    -21.1658n    -37.4277n    -25.1779n  
  136.00000n      6.0301p    -23.0049n    -32.6407n    -21.9489n  
  137.00000n      6.0301p    -24.8440n    -27.8537n    -18.7199n  
  138.00000n      6.0301p    -26.6832n    -23.0668n    -15.4909n  
  139.00000n      6.0301p    -28.5223n    -18.2798n    -12.2619n  
  140.00000n      6.0300p    -30.3614n    -13.4928n     -9.0329n  
  141.00000n      6.0300p    -28.5173n     -9.9265n     -6.6450n  
  142.00000n      6.0300p    -27.0081n     -6.4259n     -4.3021n  
  143.00000n      6.0300p    -28.6267n     -3.5387n     -2.3788n  
  144.00000n      6.0300p    -30.2452n   -651.5328p   -455.4246p  
  145.00000n      6.0300p    -31.8638n      2.2357n      1.4679n  
  146.00000n      6.0300p    -33.4823n      5.1229n      3.3913n  
  147.00000n      6.0300p    -35.1008n      8.0100n      5.3146n  
  148.00000n      6.0300p    -36.6875n     11.2259n      7.4521n  
  149.00000n      6.0301p    -35.1302n     87.2107n     57.3208n  
  150.00000n    374.8345u    -35.1242n   -346.5948u   -223.5993u  
  151.00000n    551.6081u    -35.1154n   -516.7389u   -343.9122u  
  152.00000n    601.6785u    -34.9028n   -563.8643u   -375.6141u  
  153.00000n    611.3442u    -34.5594n   -573.2064u   -382.2281u  
  154.00000n    570.7112u    -34.2169n   -535.2021u   -357.4036u  
  155.00000n    486.7730u    -34.2374n   -456.6280u   -305.0311u  
  156.00000n    402.8348u    -34.2580n   -378.0540u   -252.6587u  
  157.00000n    324.3091u    -31.7502n   -304.3303u   -203.4726u  
  158.00000n    245.7975u    -29.2358n   -230.6192u   -154.2949u  
  159.00000n    182.0160u    -28.0157n   -170.7631u   -114.3185u  
  160.00000n    142.8057u    -28.9546n   -134.0183u    -89.6904u  
  161.00000n    103.5953u    -29.8934n    -97.2734u    -65.0623u  
  162.00000n     64.3850u    -30.8323n    -60.5285u    -40.4343u  
  163.00000n     45.2090u    -28.2444n    -42.4874u    -28.3970u  
  164.00000n     32.7242u    -24.4786n    -30.6929u    -20.5649u  
  165.00000n     20.2393u    -20.7128n    -18.8985u    -12.7327u  
  166.00000n     16.3323u    -20.8222n    -15.2760u    -10.2706u  
  167.00000n     12.4253u    -20.9317n    -11.6535u     -7.8084u  
  168.00000n      9.2409u    -17.2618n     -8.6748u     -5.8062u  
  169.00000n      6.2665u    -12.4942n     -5.8829u     -3.9376u  
  170.00000n      5.0051u    -10.5474n     -4.7353u     -3.1694u  
  171.00000n      3.9492u     -8.9392n     -3.7850u     -2.5334u  
  172.00000n      2.8934u     -7.3310n     -2.8347u     -1.8974u  
  173.00000n      1.8376u     -5.7228n     -1.8844u     -1.2613u  
  174.00000n    781.7147n     -4.1146n   -934.1342n   -625.2858n  
  175.00000n   -274.1215n     -2.5064n     16.1536n     10.7544n  
  176.00000n   -250.6512n   -771.7674p     31.1332n     20.6496n  
  177.00000n   -227.1809n    962.8979p     46.1128n     30.5448n  
  178.00000n   -203.7106n      2.6976n     61.0924n     40.4400n  
  179.00000n   -180.2403n      4.4322n     76.0720n     50.3351n  
  180.00000n   -156.7699n      6.1669n     91.0515n     60.2303n  
  181.00000n   -118.2629n     15.6669n     95.8909n     63.7644n  
  182.00000n    -84.0071n     21.7900n     90.4743n     60.4515n  
  183.00000n    -59.3363n     20.2992n     61.9340n     41.7012n  
  184.00000n    -34.6655n     18.8083n     33.3938n     22.9509n  
  185.00000n     -9.9947n     17.3175n      4.8535n      4.2006n  
  186.00000n     -8.7146n     19.3099n      4.5562n      3.8077n  
  187.00000n     -7.4346n     21.3023n      4.2589n      3.4149n  
  188.00000n     -6.1545n     23.2946n      3.9616n      3.0220n  
  189.00000n     -4.8745n     25.2870n      3.6643n      2.6292n  
  190.00000n     -3.5945n     27.2794n      3.3669n      2.2363n  
  191.00000n     -2.6695n     30.1169n      2.5102n      1.6807n  
  192.00000n     -1.7663n     32.7265n      1.6726n      1.1358n  
  193.00000n     -1.0664n     33.2091n      1.0140n    691.4826p  
  194.00000n   -366.4249p     33.6916n    355.3866p    247.1177p  
  195.00000n    333.5277p     34.1742n   -303.2384p   -197.2471p  
  196.00000n      1.0335n     34.6567n   -961.8635p   -641.6120p  
  197.00000n      1.7334n     35.1393n     -1.6205n     -1.0860n  
  198.00000n      2.5312n     35.6155n     -2.3705n     -1.5904n  
  199.00000n     18.8044n     35.0933n    -17.5741n    -11.5988n  
  200.00000n     35.0776n     34.5712n    -32.7777n    -21.6073n  
y
x

        time    current    
                    c1     
    0.            0.       
    1.00000n     33.5716u  
    2.00000n     40.0119u  
    3.00000n     40.5873u  
    4.00000n     39.8905u  
    5.00000n     34.8122u  
    6.00000n     27.8183u  
    7.00000n     21.6535u  
    8.00000n     17.5655u  
    9.00000n     13.4776u  
   10.00000n     10.2246u  
   11.00000n      7.3338u  
   12.00000n      4.4431u  
   13.00000n      1.5523u  
   14.00000n      1.9660u  
   15.00000n      2.4592u  
   16.00000n      1.6786u  
   17.00000n    898.0667n  
   18.00000n    578.4144n  
   19.00000n    368.1041n  
   20.00000n    298.0969n  
   21.00000n    237.4670n  
   22.00000n    176.8371n  
   23.00000n    116.2072n  
   24.00000n     55.5773n  
   25.00000n     -5.0526n  
   26.00000n     -4.2612n  
   27.00000n     -3.4699n  
   28.00000n     -2.6785n  
   29.00000n     -1.8872n  
   30.00000n     -1.0958n  
   31.00000n     -3.6009n  
   32.00000n     -4.9182n  
   33.00000n     -3.5561n  
   34.00000n     -2.1941n  
   35.00000n   -831.9806p  
   36.00000n   -757.5987p  
   37.00000n   -683.2167p  
   38.00000n   -608.8347p  
   39.00000n   -534.4527p  
   40.00000n   -460.0708p  
   41.00000n   -338.9141p  
   42.00000n   -214.2650p  
   43.00000n    -57.0048p  
   44.00000n    100.2554p  
   45.00000n    257.5156p  
   46.00000n    414.7758p  
   47.00000n    572.0359p  
   48.00000n    754.1411p  
   49.00000n      6.2311n  
   50.00000n    -27.0840u  
   51.00000n    -34.7356u  
   52.00000n    -37.7179u  
   53.00000n    -38.1285u  
   54.00000n    -35.4912u  
   55.00000n    -30.1087u  
   56.00000n    -24.7263u  
   57.00000n    -19.9486u  
   58.00000n    -15.1725u  
   59.00000n    -11.2613u  
   60.00000n     -8.7933u  
   61.00000n     -6.3252u  
   62.00000n     -3.8572u  
   63.00000n     -2.7235u  
   64.00000n     -2.0358u  
   65.00000n     -1.3480u  
   66.00000n     -1.0602u  
   67.00000n   -772.4869n  
   68.00000n   -566.3884n  
   69.00000n   -384.0001n  
   70.00000n   -311.4541n  
   71.00000n   -252.0943n  
   72.00000n   -192.7344n  
   73.00000n   -133.3746n  
   74.00000n    -74.0148n  
   75.00000n    -14.6549n  
   76.00000n    -10.8860n  
   77.00000n     -7.1171n  
   78.00000n     -3.3482n  
   79.00000n    420.6850p  
   80.00000n      4.1896n  
   81.00000n      7.3850n  
   82.00000n      8.6364n  
   83.00000n      5.5047n  
   84.00000n      2.3730n  
   85.00000n   -758.6790p  
   86.00000n   -561.0597p  
   87.00000n   -363.4404p  
   88.00000n   -165.8212p  
   89.00000n     31.7981p  
   90.00000n    229.4174p  
   91.00000n    163.4084p  
   92.00000n     99.8406p  
   93.00000n     59.0688p  
   94.00000n     18.2969p  
   95.00000n    -22.4749p  
   96.00000n    -63.2467p  
   97.00000n   -104.0186p  
   98.00000n   -151.3237p  
   99.00000n     -1.2322n  
  100.00000n     -2.3130n  
  101.00000n     32.9696u  
  102.00000n     38.8907u  
  103.00000n     41.1187u  
  104.00000n     39.0809u  
  105.00000n     34.5153u  
  106.00000n     27.8477u  
  107.00000n     22.4114u  
  108.00000n     17.3334u  
  109.00000n     12.4819u  
  110.00000n      9.5707u  
  111.00000n      6.6596u  
  112.00000n      3.7649u  
  113.00000n      3.0565u  
  114.00000n      2.3481u  
  115.00000n      1.6397u  
  116.00000n      1.2092u  
  117.00000n    778.6481n  
  118.00000n    562.7814n  
  119.00000n    368.7691n  
  120.00000n    308.6725n  
  121.00000n    248.5758n  
  122.00000n    188.4792n  
  123.00000n    128.3825n  
  124.00000n     68.2859n  
  125.00000n      8.1892n  
  126.00000n      4.6494n  
  127.00000n      1.1095n  
  128.00000n     -2.4304n  
  129.00000n     -5.9702n  
  130.00000n     -9.5101n  
  131.00000n     -9.4423n  
  132.00000n     -8.7450n  
  133.00000n     -6.6261n  
  134.00000n     -4.5073n  
  135.00000n     -2.3884n  
  136.00000n     -2.0868n  
  137.00000n     -1.7851n  
  138.00000n     -1.4834n  
  139.00000n     -1.1817n  
  140.00000n   -880.0036p  
  141.00000n   -647.5261p  
  142.00000n   -418.9010p  
  143.00000n   -226.2502p  
  144.00000n    -33.5994p  
  145.00000n    159.0514p  
  146.00000n    351.7022p  
  147.00000n    544.3531p  
  148.00000n    761.5638p  
  149.00000n      6.2362n  
  150.00000n    -27.0840u  
  151.00000n    -34.7356u  
  152.00000n    -37.7179u  
  153.00000n    -38.1285u  
  154.00000n    -35.4912u  
  155.00000n    -30.1087u  
  156.00000n    -24.7263u  
  157.00000n    -19.9486u  
  158.00000n    -15.1725u  
  159.00000n    -11.2614u  
  160.00000n     -8.7933u  
  161.00000n     -6.3252u  
  162.00000n     -3.8571u  
  163.00000n     -2.7236u  
  164.00000n     -2.0358u  
  165.00000n     -1.3480u  
  166.00000n     -1.0602u  
  167.00000n   -772.4856n  
  168.00000n   -566.3875n  
  169.00000n   -383.9992n  
  170.00000n   -311.4537n  
  171.00000n   -252.0940n  
  172.00000n   -192.7342n  
  173.00000n   -133.3744n  
  174.00000n    -74.0146n  
  175.00000n    -14.6548n  
  176.00000n    -10.8859n  
  177.00000n     -7.1170n  
  178.00000n     -3.3481n  
  179.00000n    420.7566p  
  180.00000n      4.1896n  
  181.00000n      7.3850n  
  182.00000n      8.6364n  
  183.00000n      5.5047n  
  184.00000n      2.3730n  
  185.00000n   -758.6672p  
  186.00000n   -561.0496p  
  187.00000n   -363.4320p  
  188.00000n   -165.8144p  
  189.00000n     31.8032p  
  190.00000n    229.4209p  
  191.00000n    163.4109p  
  192.00000n     99.8423p  
  193.00000n     59.0702p  
  194.00000n     18.2981p  
  195.00000n    -22.4741p  
  196.00000n    -63.2462p  
  197.00000n   -104.0183p  
  198.00000n   -151.3237p  
  199.00000n     -1.2322n  
  200.00000n     -2.3130n  
y

          ***** job concluded
1****** HSPICE -- D-2010.03-SP1 32-BIT (May 26 2010) winnt ******               
 ******  
 * non-inverting buffer

  ******  job statistics summary tnom=  25.000 temp=  25.000 *****

  ******  HSPICE Threads Information  ******

  Command Line Threads Count                  :     1
  Available CPU Count                         :    12
  Actual Model Evaluation(Load) Threads Count :     1
  Actual Solver Threads Count                 :     1


  ******  Circuit Statistics  ******
  # nodes       =      10 # elements   =      14
  # resistors   =       3 # capacitors =       3 # inductors   =       2
  # mutual_inds =       0 # vccs       =       0 # vcvs        =       0
  # cccs        =       0 # ccvs       =       0 # volt_srcs   =       2
  # curr_srcs   =       0 # diodes     =       0 # bjts        =       0
  # jfets       =       0 # mosfets    =       4 # U elements  =       0
  # T elements  =       0 # W elements =       0 # B elements  =       0
  # S elements  =       0 # P elements =       0 # va device   =       0


  ******  Runtime Statistics (seconds)  ******

  analysis           time    # points   tot. iter  conv.iter
  op point           0.02           1           9
  transient          0.18         201         296         100 rev=         4
  readin             0.25
  errchk             0.04
  setup              0.06
  output             0.00


           total memory used          164  kbytes
           total cpu time            0.64 seconds
           total elapsed time        1.03 seconds
           job started at     23:15:39 05/21/2012
           job ended   at     23:15:40 05/21/2012


  lic: Release hspice token(s) 
