***** HSPICE -- D-2010.03-SP1 32-BIT (May 26 2010) winnt ******
 Input File: d:\synopsys\hspice\trytry\buffertrans.sp
 lic:
 lic: FLEXlm: v8.5b
 lic: USER:   zrc                  HOSTNAME: LAPTOP-O4SR7NUK
 lic: HOSTID: "005056c00001 00ffd46088fe a87eea1f533c 005056c00008 a87eea1f5338
 lic: Using FLEXlm license file:
 lic: C:\flexlm\hspice.dat
 lic: Checkout 1 hspice
 lic: License/Maintenance for hspice will expire on 31-dec-2020/2007.9
 lic: NODE LOCKED license on hostid "005056c00001 00ffd46088fe a87eea1f533c 0050
 lic:
 init: begin read circuit files,  cpu clock=  3.93E-01
       option search   = D:\synopsys\Hspice_D-2010.03-SP1\PARTS\behave\
       option search   = D:\synopsys\Hspice_D-2010.03-SP1\PARTS\AD\
       option search   = D:\synopsys\Hspice_D-2010.03-SP1\PARTS\XILINX\
       option search   = D:\synopsys\Hspice_D-2010.03-SP1\PARTS\TLINE\
       option search   = D:\synopsys\Hspice_D-2010.03-SP1\PARTS\TI\
       option search   = D:\synopsys\Hspice_D-2010.03-SP1\PARTS\SIGNET\
       option search   = D:\synopsys\Hspice_D-2010.03-SP1\PARTS\PCI\
       option search   = D:\synopsys\Hspice_D-2010.03-SP1\PARTS\LIN_TECH\
       option search   = D:\synopsys\Hspice_D-2010.03-SP1\PARTS\FET\
       option search   = D:\synopsys\Hspice_D-2010.03-SP1\PARTS\DIO\
       option search   = D:\synopsys\Hspice_D-2010.03-SP1\PARTS\COMLINE\
       option search   = D:\synopsys\Hspice_D-2010.03-SP1\PARTS\BURR_BRN\
       option search   = D:\synopsys\Hspice_D-2010.03-SP1\PARTS\BJT\
       option search   = D:\synopsys\Hspice_D-2010.03-SP1\PARTS\behave\
       option search   = D:\synopsys\Hspice_D-2010.03-SP1\PARTS\AD\
       option post     =     2.00
       option runlvl
       option list
       option node
       option post
 init: end read circuit files,  cpu clock=  6.38E-01 memory=    149 kb
 init: begin check errors,  cpu clock=  6.38E-01
 init: end check errors,  cpu clock=  6.76E-01 memory=    149 kb
 init: begin setup matrix, pivot=     0 cpu clock=  6.76E-01
       establish matrix -- done,  cpu clock=  7.09E-01 memory=    151 kb
       re-order matrix -- done,  cpu clock=  7.23E-01 memory=    151 kb
 init: end setup matrix,  cpu clock=  7.36E-01 memory=    163 kb
 dcop: begin dcop,  cpu clock=  7.51E-01
 dcop: end dcop,  cpu clock=  7.66E-01 memory=    164 kb  tot_iter=       9
 output: d:\synopsys\hspice\trytry\buffertrans.tr0
 sweep: tran tran0    begin, stop_t=  2.00E-07 #sweeps= 201 cpu clock=  8.03E-01
 tran: time= 2.5000E-08 tot_iter=      58 conv_iter=      20 cpu clock= 8.30E-01
 tran: time= 4.1903E-08 tot_iter=      69 conv_iter=      25 cpu clock= 8.46E-01
 tran: time= 6.2250E-08 tot_iter=     119 conv_iter=      40 cpu clock= 8.71E-01
 tran: time= 8.0000E-08 tot_iter=     133 conv_iter=      45 cpu clock= 8.85E-01
 tran: time= 1.0000E-07 tot_iter=     146 conv_iter=      51 cpu clock= 9.01E-01
 tran: time= 1.2500E-07 tot_iter=     205 conv_iter=      68 cpu clock= 9.14E-01
 tran: time= 1.4000E-07 tot_iter=     213 conv_iter=      72 cpu clock= 9.31E-01
 tran: time= 1.6225E-07 tot_iter=     265 conv_iter=      88 cpu clock= 9.45E-01
 tran: time= 1.8000E-07 tot_iter=     279 conv_iter=      93 cpu clock= 9.62E-01
 tran: time= 2.0000E-07 tot_iter=     292 conv_iter=      99 cpu clock= 9.77E-01
 sweep: tran tran0    end,  cpu clock=  9.93E-01 memory=    164 kb
>info:         ***** hspice job concluded
 lic: Release hspice token(s)
