 ****** HSPICE -- D-2010.03-SP1 32-BIT (May 26 2010) winnt ******               
  Copyright (C) 2010 Synopsys, Inc. All Rights Reserved.                        
  Unpublished-rights reserved under US copyright laws.
  This program is protected by law and is subject to the 
  terms and conditions of the license agreement from Synopsys.
  Use of this program is your acceptance to be bound by the 
  license agreement. HSPICE is the trademark of Synopsys, Inc.
  Input File: d:\synopsys\hspice\trytry\bufferac.sp                             
  lic:  
  lic: FLEXlm: v8.5b 
  lic: USER:   zrc                  HOSTNAME: LAPTOP-O4SR7NUK 
  lic: HOSTID: "005056c00001 00ffd46088fe a87eea1f533c 005056c00008 a87eea1f5338
  
  lic: Using FLEXlm license file: 
  lic: C:\flexlm\hspice.dat 
  lic: Checkout 1 hspice 
  lic: License/Maintenance for hspice will expire on 31-dec-2020/2007.9 
  lic: NODE LOCKED license on hostid "005056c00001 00ffd46088fe a87eea1f533c 005
 0
  lic:   
 Init: read install configuration file: D:\synopsys\Hspice_D-2010.03-SP1\meta.cfg
 scientific notation:
 a=10**-18  f=10**-15  p=10**-12  n=10**-9  u=10**-6
 m=10**-3   k=10**3    x=10**6    g=10**9 


 circuit parameter definitions
  parameter          =  value 





 constants  - tnom         kt           vt           gapsi        ni
            298.15000    4.1163e-21    25.69184m     1.11562    1.2565e+16 
1****** HSPICE -- D-2010.03-SP1 32-BIT (May 26 2010) winnt ******               
 ******  
 * non-inverting buffer

  ******  mos   model parameters tnom=  25.000 temp=  25.000 *****
 ***************************************************************************
 *** common model parameters  model name:   0:modp     model type:pmos   ***
 ***************************************************************************
     names  values   units     names  values   units     names  values   units
     -----  ------   -----     -----  ------   -----     -----  ------   -----

   1*** geometry parameters ***
       ld=   0.    meters      lmlt=   1.00                wd=   0.    meters 
     wmlt=   1.00                xl=   0.    meters        xw=   0.    meters 
     lref=   0.    meters      wref=   0.    meters      lref=   0.    meters 
     wref=   0.    meters     xlref=   0.    meters     xwref=   0.    meters 
     lmin=   0.    meters      wmin=   0.    meters      lmax=   0.    meters 
     wmax=   0.    meters 

   2*** threshold voltage parameters ***
      vto=-750.00m volts        nss=   0.    1/cm**2      tpg=   1.00         
      phi= 579.84m volts      gamma=   6.07  v**0.5      bulk=  gnd           
    ngate=   0.    cm**3       nsub= 1.0e+15 1/cm**3   delvto=   0.    volts  

   3*** gate overlap capacitance parameters ***
     cgbo=   0.    f/meter     cgdo=   0.    f/meter     cgso=   0.    f/meter
     meto=   0.    meters 

   4*** gate capacitance parameters ***
    capop=   2.00               cf1=   0.    volts        cf2= 100.00m volts  
      cf3=   1.00  volts        cf4=  50.00               cf5= 666.67m        
      cf6= 500.00               xqc= 500.00m              tox=   1.15u meters 
      cox=  30.00u f/m**2 

   5*** diffusion parasitic parameters ***
      acm=   0.                  is=  10.00f amps          js=   0.    a/m**2 
      jsw=   0.    amp/m        nds=   1.00               cbd=   0.    farad  
      cbs=   0.    farad         cj=  40.00f f/m**2      cjsw=   0.    f/m    
   cjgate=   0.    f/m           mj= 500.00m             mjsw= 330.00m        
       pb= 800.00m volts        php= 800.00m volts         tt=   0.    secs   
     hdif=   0.    meters      ldif=   0.    meters        rd=   0.    ohms   
       rs=   0.    ohms         rsh=   0.    ohms/sq       fc=   0.           
    alpha=   0.                 vcr=   0.    volts      iirat=   0.           
      rdc=   0.    ohms         rsc=   0.    ohms           n=   1.00         
     vnds=  -1.00  volts  

   6*** temperature effect parameters ***
     tlev=   0.               tlevc=   0.                  eg=   1.11  ev     
     gap1= 702.00u ev/deg      gap2=   1.11k deg          xti=   0.           
      bex=  -1.50               tcv=   0.    v/deg k      trd=   0.    /deg   
      trs=   0.    /deg         cta=   0.    /deg         ctp=   0.    /deg   

   7*** noise parameters ***
       kf=   0.                  af=   1.00              nlev=   2.00         
   gdsnoi=   1.00         

   ***  level  2  model parameters  ***

    delta=   0.               ecrit=   0.    v/m       lambda=  50.00m /v     
      nfs=   0.    1/cm**2    ucrit=  10.00k v/cm        uexp=   0.           
     utra=   0.                  uo= 500.00 cm**2/vs       xj=   0.    meters 
     neff=   1.00              vmax=   0.     m/sec        kp=   1.50u a/v**2 
      mob=-1.2e-29            deriv=   0.           
 ***************************************************************************
 *** common model parameters  model name:   0:modn     model type:nmos   ***
 ***************************************************************************
     names  values   units     names  values   units     names  values   units
     -----  ------   -----     -----  ------   -----     -----  ------   -----

   1*** geometry parameters ***
       ld=   0.    meters      lmlt=   1.00                wd=   0.    meters 
     wmlt=   1.00                xl=   0.    meters        xw=   0.    meters 
     lref=   0.    meters      wref=   0.    meters      lref=   0.    meters 
     wref=   0.    meters     xlref=   0.    meters     xwref=   0.    meters 
     lmin=   0.    meters      wmin=   0.    meters      lmax=   0.    meters 
     wmax=   0.    meters 

   2*** threshold voltage parameters ***
      vto= 830.00m volts        nss=   0.    1/cm**2      tpg=   1.00         
      phi= 579.84m volts      gamma=   6.07  v**0.5      bulk=  gnd           
    ngate=   0.    cm**3       nsub= 1.0e+15 1/cm**3   delvto=   0.    volts  

   3*** gate overlap capacitance parameters ***
     cgbo=   0.    f/meter     cgdo=   0.    f/meter     cgso=   0.    f/meter
     meto=   0.    meters 

   4*** gate capacitance parameters ***
    capop=   2.00               cf1=   0.    volts        cf2= 100.00m volts  
      cf3=   1.00  volts        cf4=  50.00               cf5= 666.67m        
      cf6= 500.00               xqc= 500.00m              tox=   1.15u meters 
      cox=  30.00u f/m**2 

   5*** diffusion parasitic parameters ***
      acm=   0.                  is=  10.00f amps          js=   0.    a/m**2 
      jsw=   0.    amp/m        nds=   1.00               cbd=   0.    farad  
      cbs=   0.    farad         cj=  40.00f f/m**2      cjsw=   0.    f/m    
   cjgate=   0.    f/m           mj= 500.00m             mjsw= 330.00m        
       pb= 800.00m volts        php= 800.00m volts         tt=   0.    secs   
     hdif=   0.    meters      ldif=   0.    meters        rd=   0.    ohms   
       rs=   0.    ohms         rsh=   0.    ohms/sq       fc=   0.           
    alpha=   0.                 vcr=   0.    volts      iirat=   0.           
      rdc=   0.    ohms         rsc=   0.    ohms           n=   1.00         
     vnds=  -1.00  volts  

   6*** temperature effect parameters ***
     tlev=   0.               tlevc=   0.                  eg=   1.11  ev     
     gap1= 702.00u ev/deg      gap2=   1.11k deg          xti=   0.           
      bex=  -1.50               tcv=   0.    v/deg k      trd=   0.    /deg   
      trs=   0.    /deg         cta=   0.    /deg         ctp=   0.    /deg   

   7*** noise parameters ***
       kf=   0.                  af=   1.00              nlev=   2.00         
   gdsnoi=   1.00         

   ***  level  2  model parameters  ***

    delta=   0.               ecrit=   0.    v/m       lambda=  50.00m /v     
      nfs=   0.    1/cm**2    ucrit=  10.00k v/cm        uexp=   0.           
     utra=   0.                  uo=   1.50kcm**2/vs       xj=   0.    meters 
     neff=   1.00              vmax=   0.     m/sec        kp=   4.50u a/v**2 
      mob=-1.2e-29            deriv=   0.           
1****** HSPICE -- D-2010.03-SP1 32-BIT (May 26 2010) winnt ******               
 ******  
 * non-inverting buffer

  ******  circuit element summary tnom=  25.000 temp=  25.000 *****


 **** resistors

  
 
                                                
 element name        0:rin     0:r2      0:r3   
 node1               0:101     0:104     0:116  
 node2               0:102     0:115     0:117  
 model                                          
 res eff            10.0000   25.0000   35.0000 
 tc1                 0.        0.        0.     
 tc2                 0.        0.        0.     
 scale               1.0000    1.0000    1.0000 
 m                   1.0000    1.0000    1.0000 
 ac                 10.0000   25.0000   35.0000 
 temp               25.0000   25.0000   25.0000 
 l                   0.        0.        0.     
 w                   0.        0.        0.     
 cap                 0.        0.        0.     
 noise            1.000e+00 1.000e+00 1.000e+00 


 **** capacitors
  
 
                                                   
 element name        0:c1       0:c2       0:c3    
 node1               0:104      0:116      0:118   
 node2               0:0        0:0        0:0     
 model                                             
 cap eff           100.0000f  500.0000f    1.0000p 
 tc1                 0.         0.         0.      
 tc2                 0.         0.         0.      
 scale               1.0000     1.0000     1.0000  
 ic                  0.         0.         0.      
 m                   1.0000     1.0000     1.0000  
 w                   0.         0.         0.      
 l                   0.         0.         0.      
 temp               25.0000    25.0000    25.0000  


 **** inductors
  
 
                                        
 element name        0:l1       0:l2    
 node1               0:115      0:117   
 node2               0:116      0:118   
 model                                  
 ind eff           500.0000f  500.0000f 
 res eff             0.         0.      
 tc1                 0.         0.      
 tc2                 0.         0.      
 nt                  1.0000     1.0000  
 ic                  0.         0.      
 m                   1.0000     1.0000  


 **** independent sources

     name         node1        node2      dc volt    ac mag    ac phase    type
  vdd  103               0                    3.0000     0.         0.      dc   
  vin  101               0                    1.5000     1.0000    90.0000  dc   


 **** mosfets
  
 
                                                              
 element name        0:m1       0:m2       0:m3       0:m4    
 drain               0:107      0:107      0:104      0:104   
 gate                0:102      0:102      0:107      0:107   
 source              0:103      0:0        0:103      0:0     
 bulk                0:103      0:0        0:103      0:0     
 model               0:modp     0:modn     0:modp     0:modn  
 w eff              30.0000u   10.0000u   60.0000u   20.0000u 
 l eff             350.0000n  350.0000n  350.0000n  350.0000n 
 rd eff              0.         0.         0.         0.      
 rs eff              0.         0.         0.         0.      
 cdsat              10.0000f   10.0000f   10.0000f   10.0000f 
 cssat              10.0000f   10.0000f   10.0000f   10.0000f 
 capbd               0.         0.         0.         0.      
 capbs               0.         0.         0.         0.      
 temp               25.0000    25.0000    25.0000    25.0000  
 aic                                                          
  
 
1****** HSPICE -- D-2010.03-SP1 32-BIT (May 26 2010) winnt ******               
 ******  
 * non-inverting buffer

  ******  element node table
                                                                                      
 0                c1               c2               c3               vdd              
                  vin              m2:s             m2:b             m4:s             
                  m4:b                                                                
 101              rin              vin                                                
 102              rin              m1:g             m2:g                              
 103              vdd              m1:s             m1:b             m3:s             
                  m3:b                                                                
 104              r2               c1               m3:d             m4:d             
 107              m1:d             m2:d             m3:g             m4:g             
 115              r2               l1                                                 
 116              r3               c2               l1                                
 117              r3               l2                                                 
 118              c3               l2                                                 
 **info** set option symb=1 internally to help for convergence.
 *****************************************************************
 ******  option summary
 ******
 runlvl  = 3         bypass  = 2         

 **info** rebuilding matrix with pivot option

1****** HSPICE -- D-2010.03-SP1 32-BIT (May 26 2010) winnt ******               
 ******  
 * non-inverting buffer

  ******  operating point information tnom=  25.000 temp=  25.000 *****
 ***** operating point status is all       simulation time is     0.     
    node    =voltage      node    =voltage      node    =voltage

 +0:101     =   1.5000  0:102     =   1.5000  0:103     =   3.0000 
 +0:104     =  19.7865n 0:107     =   2.9099  0:115     =  19.7865n
 +0:116     =  19.7865n 0:117     =  19.7865n 0:118     =  19.7865n


 ****  voltage sources

 subckt                        
 element  0:vdd      0:vin     
  volts      3.0000     1.5000 
  current   -3.4995u    0.     
  power     10.4984u    0.     

     total voltage source power dissipation=   10.4984u       watts



 **** resistors

 subckt                                   
 element  0:rin      0:r2       0:r3      
  r value   10.0000    25.0000    35.0000 
  v drop  -222.0446a    0.         0.     
  current  -22.2045a    0.         0.     
  power      0.         0.         0.     



 **** mosfets


 subckt                                              
 element  0:m1       0:m2       0:m3       0:m4      
 model    0:modp     0:modn     0:modp     0:modn    
 region       Linear   Saturati     Cutoff     Linear
  id        -3.4995u    3.4995u    0.         6.0300p
  ibs        0.         0.         0.         0.     
  ibd      900.8878a  -29.0991f   30.0000f -1.979e-22
  vgs       -1.5000     1.5000   -90.0888m    2.9099 
  vds      -90.0888m    2.9099    -3.0000    19.7865n
  vbs        0.         0.         0.         0.     
  vth     -750.0000m  830.0000m -750.0000m  830.0000m
  vdsat   -157.9643m  140.4070m    0.       472.9726m
  vod     -750.0000m  670.0000m  659.9112m    2.0799 
  beta      73.3297u   75.4762u  257.1429u  146.5222u
  gam eff    6.0732     6.0732     6.0732     6.0732 
  gm         6.6062u   10.5974u    0.         2.8992p
  gds       23.0339u   35.2940n    0.       304.7531u
  gmb       25.3935u   39.9716u    0.        11.5613p
  cdtot    150.5772a  4.074e-19  7.413e-20  105.0005a
  cgtot    321.1143a   72.8410a  528.0529a  211.6001a
  cstot    163.9956a   70.0004a   12.3546a  105.0005a
  cbtot      6.5415a    2.4333a  515.6241a    1.5991a
  cgs      163.9956a   70.0004a   12.3546a  105.0005a
  cgd      150.5772a  4.074e-19  7.413e-20  105.0005a



 ******  
 * non-inverting buffer

  ******  ac analysis tnom=  25.000 temp=  25.000 *****
x

        freq    current 1    current 2    current 3    current 4  
                    m1           m1           m1           m1     
    1.00000k     10.5711u      2.7232p     10.5711u     41.7722f  
    1.25893k     10.5711u      3.4283p     10.5711u     52.2779f  
    1.58489k     10.5711u      4.3159p     10.5711u     65.5665f  
    1.99526k     10.5711u      5.4334p     10.5711u     82.3460f  
    2.51189k     10.5711u      6.8403p     10.5711u    103.5105f  
    3.16228k     10.5711u      8.6114p     10.5711u    130.1871f  
    3.98107k     10.5711u     10.8411p     10.5711u    163.7966f  
    5.01187k     10.5711u     13.6482p     10.5711u    206.1288f  
    6.30957k     10.5711u     17.1820p     10.5711u    259.4381f  
    7.94328k     10.5711u     21.6309p     10.5711u    326.5635f  
   10.00000k     10.5711u     27.2317p     10.5711u    411.0794f  
   12.58925k     10.5711u     34.2826p     10.5711u    517.4869f  
   15.84893k     10.5711u     43.1593p     10.5711u    651.4525f  
   19.95262k     10.5711u     54.3343p     10.5711u    820.1103f  
   25.11886k     10.5711u     68.4028p     10.5711u      1.0324p  
   31.62278k     10.5711u     86.1141p     10.5711u      1.2998p  
   39.81072k     10.5711u    108.4112p     10.5711u      1.6363p  
   50.11872k     10.5711u    136.4816p     10.5711u      2.0600p  
   63.09573k     10.5711u    171.8201p     10.5711u      2.5933p  
   79.43282k     10.5711u    216.3087p     10.5711u      3.2648p  
  100.00000k     10.5711u    272.3166p     10.5711u      4.1101p  
  125.89254k     10.5711u    342.8262p     10.5711u      5.1743p  
  158.48932k     10.5711u    431.5927p     10.5711u      6.5141p  
  199.52623k     10.5711u    543.3430p     10.5711u      8.2008p  
  251.18864k     10.5711u    684.0283p     10.5711u     10.3242p  
  316.22777k     10.5711u    861.1405p     10.5711u     12.9973p  
  398.10717k     10.5711u      1.0841n     10.5711u     16.3627p  
  501.18723k     10.5711u      1.3648n     10.5711u     20.5994p  
  630.95734k     10.5711u      1.7182n     10.5711u     25.9331p  
  794.32823k     10.5711u      2.1631n     10.5711u     32.6478p  
    1.00000x     10.5711u      2.7232n     10.5711u     41.1012p  
    1.25893x     10.5711u      3.4283n     10.5711u     51.7433p  
    1.58489x     10.5711u      4.3159n     10.5711u     65.1410p  
    1.99526x     10.5711u      5.4334n     10.5711u     82.0076p  
    2.51189x     10.5711u      6.8403n     10.5711u    103.2415p  
    3.16228x     10.5711u      8.6114n     10.5711u    129.9734p  
    3.98107x     10.5711u     10.8411n     10.5711u    163.6268p  
    5.01187x     10.5710u     13.6482n     10.5711u    205.9939p  
    6.30957x     10.5710u     17.1820n     10.5711u    259.3309p  
    7.94328x     10.5710u     21.6309n     10.5711u    326.4783p  
   10.00000x     10.5710u     27.2316n     10.5711u    411.0118p  
   12.58925x     10.5710u     34.2825n     10.5711u    517.4332p  
   15.84893x     10.5709u     43.1591n     10.5712u    651.4098p  
   19.95262x     10.5709u     54.3340n     10.5713u    820.0764p  
   25.11886x     10.5708u     68.4021n     10.5714u      1.0324n  
   31.62278x     10.5706u     86.1127n     10.5716u      1.2997n  
   39.81072x     10.5703u    108.4085n     10.5719u      1.6363n  
   50.11872x     10.5699u    136.4762n     10.5724u      2.0599n  
   63.09573x     10.5692u    171.8094n     10.5732u      2.5933n  
   79.43282x     10.5681u    216.2873n     10.5745u      3.2648n  
  100.00000x     10.5664u    272.2737n     10.5765u      4.1101n  
  125.89254x     10.5637u    342.7408n     10.5797u      5.1743n  
  158.48932x     10.5594u    431.4222n     10.5847u      6.5141n  
  199.52623x     10.5526u    543.0032n     10.5927u      8.2008n  
  251.18864x     10.5419u    683.3511n     10.6053u     10.3241n  
  316.22777x     10.5249u    859.7921n     10.6251u     12.9973n  
  398.10717x     10.4981u      1.0814u     10.6564u     16.3627n  
  501.18723x     10.4558u      1.3595u     10.7053u     20.5994n  
  630.95734x     10.3895u      1.7076u     10.7815u     25.9331n  
  794.32823x     10.2859u      2.1423u     10.8988u     32.6478n  
    1.00000g     10.1256u      2.6824u     11.0766u     41.1011n  
    1.25893g      9.8805u      3.3491u     11.3402u     51.7432n  
    1.58489g      9.5133u      4.1646u     11.7181u     65.1407n  
    1.99526g      8.9781u      5.1502u     12.2362u     82.0071n  
    2.51189g      8.2289u      6.3256u     12.9071u    103.2405n  
    3.16228g      7.2350u      7.7111u     13.7200u    129.9716n  
    3.98107g      6.0092u      9.3377u     14.6418u    163.6239n  
    5.01187g      4.6553u     11.2624u     15.6358u    205.9895n  
    6.30957g      3.5024u     13.5850u     16.6924u    259.3244n  
    7.94328g      3.3534u     16.4538u     17.8556u    326.4691n  
   10.00000g      4.7094u     20.0630u     19.2329u    410.9992n  
   12.58925g      7.0509u     24.6480u     20.9908u    517.4164n  
   15.84893g     10.0505u     30.4878u     23.3449u    651.3879n  
   19.95262g     13.7016u     37.9177u     26.5510u    820.0481n  
   25.11886g     18.1347u     47.3483u     30.8996u      1.0324u  
   31.62278g     23.5582u     59.2904u     36.7191u      1.2997u  
   39.81072g     30.2483u     74.3847u     44.3886u      1.6362u  
   50.11872g     38.5550u     93.4376u     54.3619u      2.0599u  
   63.09573g     48.9178u    117.4648u     67.1972u      2.5932u  
   79.43282g     61.8871u    147.7467u     83.5934u      3.2647u  
  100.00000g     78.1527u    185.8961u    104.4321u      4.1100u  
  125.89254g     98.5804u    233.9447u    130.8273u      5.1741u  
  158.48932g    124.2579u    294.4510u    164.1869u      6.5138u  
  199.52623g    156.5522u    370.6370u    206.2883u      8.2004u  
  251.18864g    197.1828u    466.5590u    259.3738u     10.3236u  
  316.22777g    248.3126u    587.3234u    326.2695u     12.9965u  
  398.10717g    312.6630u    739.3579u    410.5364u     16.3614u  
  501.18723g    393.6581u    930.7521u    516.6580u     20.5973u  
  630.95734g    495.6050u      1.1717m    650.2780u     25.9294u  
  794.32823g    623.9214u      1.4750m    818.4970u     32.6411u  
  1.0000e+12    785.4172u      1.8567m      1.0302m     41.0887u  
  1.2589e+12    988.6461u      2.3370m      1.2967m     51.7195u  
  1.5848e+12      1.2443m      2.9414m      1.6320m     65.0949u  
  1.9952e+12      1.5659m      3.7016m      2.0538m     81.9174u  
  2.5118e+12      1.9702m      4.6571m      2.5839m    103.0638u  
  3.1622e+12      2.4779m      5.8572m      3.2497m    129.6220u  
  3.9810e+12      3.1146m      7.3623m      4.0847m    162.9308u  
  5.0118e+12      3.9114m      9.2458m      5.1298m    204.6146u  
  6.3095e+12      4.9052m     11.5948m      6.4330m    256.6002u  
  7.9432e+12      6.1379m     14.5087m      8.0497m    321.0859u  
  1.0000e+13      7.6544m     18.0932m     10.0385m    400.4133u  
  1.2589e+13      9.4961m     22.4467m     12.4539m    496.7587u  
  1.5848e+13     11.6904m     27.6335m     15.3316m    611.5444u  
  1.9952e+13     14.2320m     33.6413m     18.6648m    744.5016u  
  2.5118e+13     17.0615m     40.3297m     22.3756m    892.5183u  
  3.1622e+13     20.0492m     47.3918m     26.2938m      1.0488m  
  3.9810e+13     23.0028m     54.3735m     30.1674m      1.2033m  
  5.0118e+13     25.7115m     60.7762m     33.7197m      1.3450m  
  6.3095e+13     28.0093m     66.2077m     36.7332m      1.4652m  
  7.9432e+13     29.8210m     70.4902m     39.1092m      1.5600m  
  1.0000e+14     31.1628m     73.6620m     40.8690m      1.6302m  
  1.2589e+14     32.1089m     75.8983m     42.1097m      1.6797m  
  1.5848e+14     32.7521m     77.4187m     42.9532m      1.7133m  
  1.9952e+14     33.1784m     78.4263m     43.5123m      1.7356m  
  2.5118e+14     33.4561m     79.0827m     43.8765m      1.7501m  
  3.1622e+14     33.6349m     79.5054m     44.1110m      1.7595m  
  3.9810e+14     33.7492m     79.7757m     44.2610m      1.7655m  
  5.0118e+14     33.8220m     79.9476m     44.3563m      1.7693m  
  6.3095e+14     33.8681m     80.0567m     44.4169m      1.7717m  
  7.9432e+14     33.8973m     80.1257m     44.4552m      1.7732m  
  1.0000e+15     33.9158m     80.1694m     44.4794m      1.7742m  
  1.2589e+15     33.9274m     80.1969m     44.4947m      1.7748m  
  1.5848e+15     33.9348m     80.2144m     44.5043m      1.7752m  
  1.9952e+15     33.9395m     80.2253m     44.5104m      1.7754m  
  2.5118e+15     33.9424m     80.2323m     44.5143m      1.7756m  
  3.1622e+15     33.9443m     80.2367m     44.5167m      1.7757m  
  3.9810e+15     33.9454m     80.2394m     44.5183m      1.7757m  
  5.0118e+15     33.9462m     80.2412m     44.5192m      1.7758m  
  6.3095e+15     33.9466m     80.2423m     44.5198m      1.7758m  
  7.9432e+15     33.9469m     80.2430m     44.5202m      1.7758m  
  1.0000e+16     33.9471m     80.2434m     44.5205m      1.7758m  
y
x

        freq    current 1    current 2    current 3    current 4  
                    m2           m2           m2           m2     
    1.00000k     10.5711u    459.5826f     10.5711u     17.0106f  
    1.25893k     10.5711u    578.5802f     10.5711u     20.6417f  
    1.58489k     10.5711u    728.3893f     10.5711u     25.3528f  
    1.99526k     10.5711u    916.9878f     10.5711u     31.4036f  
    2.51189k     10.5711u      1.1544p     10.5711u     39.1212f  
    3.16228k     10.5711u      1.4533p     10.5711u     48.9193f  
    3.98107k     10.5711u      1.8296p     10.5711u     61.3211f  
    5.01187k     10.5711u      2.3034p     10.5711u     76.9878f  
    6.30957k     10.5711u      2.8998p     10.5711u     96.7539f  
    7.94328k     10.5711u      3.6506p     10.5711u    121.6724f  
   10.00000k     10.5711u      4.5958p     10.5711u    153.0702f  
   12.58925k     10.5711u      5.7858p     10.5711u    192.6196f  
   15.84893k     10.5711u      7.2839p     10.5711u    242.4266f  
   19.95262k     10.5711u      9.1699p     10.5711u    305.1437f  
   25.11886k     10.5711u     11.5442p     10.5711u    384.1108f  
   31.62278k     10.5711u     14.5333p     10.5711u    483.5333f  
   39.81072k     10.5711u     18.2963p     10.5711u    608.7056f  
   50.11872k     10.5711u     23.0337p     10.5711u    766.2937f  
   63.09573k     10.5711u     28.9977p     10.5711u    964.6898f  
   79.43282k     10.5711u     36.5059p     10.5711u      1.2145p  
  100.00000k     10.5711u     45.9583p     10.5711u      1.5289p  
  125.89254k     10.5711u     57.8580p     10.5711u      1.9248p  
  158.48932k     10.5711u     72.8389p     10.5711u      2.4231p  
  199.52623k     10.5711u     91.6988p     10.5711u      3.0505p  
  251.18864k     10.5711u    115.4419p     10.5711u      3.8404p  
  316.22777k     10.5711u    145.3328p     10.5711u      4.8348p  
  398.10717k     10.5711u    182.9631p     10.5711u      6.0866p  
  501.18723k     10.5711u    230.3369p     10.5711u      7.6626p  
  630.95734k     10.5711u    289.9770p     10.5711u      9.6466p  
  794.32823k     10.5711u    365.0594p     10.5711u     12.1444p  
    1.00000x     10.5711u    459.5826p     10.5711u     15.2888p  
    1.25893x     10.5711u    578.5802p     10.5711u     19.2475p  
    1.58489x     10.5711u    728.3893p     10.5711u     24.2312p  
    1.99526x     10.5711u    916.9878p     10.5711u     30.5053p  
    2.51189x     10.5711u      1.1544n     10.5711u     38.4038p  
    3.16228x     10.5711u      1.4533n     10.5711u     48.3476p  
    3.98107x     10.5711u      1.8296n     10.5711u     60.8660p  
    5.01187x     10.5711u      2.3034n     10.5711u     76.6257p  
    6.30957x     10.5711u      2.8998n     10.5711u     96.4661p  
    7.94328x     10.5711u      3.6506n     10.5711u    121.4436p  
   10.00000x     10.5711u      4.5958n     10.5711u    152.8885p  
   12.58925x     10.5711u      5.7858n     10.5711u    192.4752p  
   15.84893x     10.5711u      7.2839n     10.5711u    242.3119p  
   19.95262x     10.5711u      9.1699n     10.5711u    305.0526p  
   25.11886x     10.5711u     11.5442n     10.5711u    384.0385p  
   31.62278x     10.5711u     14.5333n     10.5711u    483.4758p  
   39.81072x     10.5711u     18.2963n     10.5711u    608.6600p  
   50.11872x     10.5711u     23.0337n     10.5711u    766.2574p  
   63.09573x     10.5711u     28.9977n     10.5711u    964.6610p  
   79.43282x     10.5711u     36.5059n     10.5711u      1.2144n  
  100.00000x     10.5711u     45.9581n     10.5712u      1.5289n  
  125.89254x     10.5711u     57.8577n     10.5712u      1.9248n  
  158.48932x     10.5711u     72.8384n     10.5713u      2.4231n  
  199.52623x     10.5711u     91.6977n     10.5715u      3.0505n  
  251.18864x     10.5711u    115.4397n     10.5718u      3.8404n  
  316.22777x     10.5712u    145.3284n     10.5722u      4.8348n  
  398.10717x     10.5713u    182.9545n     10.5729u      6.0866n  
  501.18723x     10.5714u    230.3197n     10.5739u      7.6626n  
  630.95734x     10.5716u    289.9430n     10.5756u      9.6466n  
  794.32823x     10.5719u    364.9925n     10.5782u     12.1443n  
    1.00000g     10.5723u    459.4518n     10.5823u     15.2888n  
    1.25893g     10.5730u    578.3274n     10.5887u     19.2475n  
    1.58489g     10.5739u    727.9089n     10.5988u     24.2311n  
    1.99526g     10.5753u    916.0962n     10.6145u     30.5051n  
    2.51189g     10.5771u      1.1528u     10.6387u     38.4035n  
    3.16228g     10.5793u      1.4506u     10.6759u     48.3469n  
    3.98107g     10.5818u      1.8251u     10.7329u     60.8649n  
    5.01187g     10.5843u      2.2963u     10.8203u     76.6241n  
    6.30957g     10.5867u      2.8893u     10.9546u     96.4637n  
    7.94328g     10.5886u      3.6358u     11.1614u    121.4402n  
   10.00000g     10.5901u      4.5757u     11.4791u    152.8838n  
   12.58925g     10.5912u      5.7590u     11.9633u    192.4689n  
   15.84893g     10.5920u      7.2489u     12.6917u    242.3037n  
   19.95262g     10.5925u      9.1247u     13.7664u    305.0421n  
   25.11886g     10.5929u     11.4865u     15.3156u    384.0250n  
   31.62278g     10.5931u     14.4599u     17.4917u    483.4586n  
   39.81072g     10.5934u     18.2034u     20.4720u    608.6380n  
   50.11872g     10.5937u     22.9162u     24.4625u    766.2296n  
   63.09573g     10.5940u     28.8494u     29.7086u    964.6254n  
   79.43282g     10.5946u     36.3190u     36.5104u      1.2144u  
  100.00000g     10.5954u     45.7226u     45.2421u      1.5288u  
  125.89254g     10.5966u     57.5611u     56.3756u      1.9247u  
  158.48932g     10.5986u     72.4648u     70.5073u      2.4230u  
  199.52623g     10.6017u     91.2273u     88.3915u      3.0504u  
  251.18864g     10.6066u    114.8475u    110.9814u      3.8402u  
  316.22777g     10.6143u    144.5830u    139.4802u      4.8345u  
  398.10717g     10.6266u    182.0163u    175.4049u      6.0861u  
  501.18723g     10.6460u    229.1392u    220.6672u      7.6618u  
  630.95734g     10.6767u    288.4577u    277.6741u      9.6452u  
  794.32823g     10.7252u    363.1241u    349.4550u     12.1419u  
  1.0000e+12     10.8016u    457.1010u    439.8196u     15.2842u  
  1.2589e+12     10.9214u    575.3660u    553.5540u     19.2387u  
  1.5848e+12     11.1086u    724.1632u    696.6632u     24.2140u  
  1.9952e+12     11.3986u    911.3094u    876.6651u     30.4717u  
  2.5118e+12     11.8428u      1.1466m      1.1029m     38.3377u  
  3.1622e+12     12.5125u      1.4420m      1.3871m     48.2169u  
  3.9810e+12     13.5012u      1.8126m      1.7436m     60.6071u  
  5.0118e+12     14.9237u      2.2763m      2.1896m     76.1127u  
  6.3095e+12     16.9115u      2.8546m      2.7459m     95.4503u  
  7.9432e+12     19.6040u      3.5720m      3.4360m    119.4378u  
  1.0000e+13     23.1382u      4.4545m      4.2848m    148.9460u  
  1.2589e+13     27.6317u      5.5263m      5.3158m    184.7847u  
  1.5848e+13     33.1553u      6.8033m      6.5442m    227.4827u  
  1.9952e+13     39.6879u      8.2824m      7.9669m    276.9402u  
  2.5118e+13     47.0600u      9.9290m      9.5509m    331.9996u  
  3.1622e+13     54.9129u     11.6677m     11.2233m    390.1357u  
  3.9810e+13     62.7203u     13.3866m     12.8767m    447.6105u  
  5.0118e+13     69.9060u     14.9629m     14.3930m    500.3185u  
  6.3095e+13     76.0157u     16.3001m     15.6793m    545.0314u  
  7.9432e+13     80.8399u     17.3545m     16.6935m    580.2855u  
  1.0000e+14     84.4163u     18.1353m     17.4446m    606.3963u  
  1.2589e+14     86.9393u     18.6859m     17.9742m    624.8054u  
  1.5848e+14     88.6552u     19.0602m     18.3343m    637.3213u  
  1.9952e+14     89.7927u     19.3083m     18.5729m    645.6164u  
  2.5118e+14     90.5338u     19.4699m     18.7284m    651.0199u  
  3.1622e+14     91.0112u     19.5740m     18.8285m    654.4999u  
  3.9810e+14     91.3163u     19.6405m     18.8925m    656.7246u  
  5.0118e+14     91.5105u     19.6828m     18.9332m    658.1400u  
  6.3095e+14     91.6337u     19.7097m     18.9590m    659.0378u  
  7.9432e+14     91.7116u     19.7267m     18.9754m    659.6061u  
  1.0000e+15     91.7609u     19.7374m     18.9857m    659.9655u  
  1.2589e+15     91.7921u     19.7442m     18.9922m    660.1926u  
  1.5848e+15     91.8117u     19.7485m     18.9964m    660.3360u  
  1.9952e+15     91.8242u     19.7512m     18.9990m    660.4265u  
  2.5118e+15     91.8320u     19.7529m     19.0006m    660.4836u  
  3.1622e+15     91.8369u     19.7540m     19.0016m    660.5196u  
  3.9810e+15     91.8401u     19.7547m     19.0023m    660.5424u  
  5.0118e+15     91.8420u     19.7551m     19.0027m    660.5568u  
  6.3095e+15     91.8433u     19.7554m     19.0030m    660.5658u  
  7.9432e+15     91.8441u     19.7556m     19.0031m    660.5716u  
  1.0000e+16     91.8446u     19.7557m     19.0032m    660.5751u  
y
x

        freq    current 1    current 2    current 3    current 4  
                    m3           m3           m3           m3     
    1.00000k    347.3327a      2.4742p     57.8888f      2.4160p  
    1.25893k    437.2659a      3.1149p     72.8777f      3.0416p  
    1.58489k    550.4852a      3.9214p     91.7475f      3.8291p  
    1.99526k    693.0198a      4.9368p    115.5033f      4.8206p  
    2.51189k    872.4602a      6.2150p    145.4101f      6.0687p  
    3.16228k      1.0984f      7.8242p    183.0604f      7.6401p  
    3.98107k      1.3828f      9.8501p    230.4594f      9.6183p  
    5.01187k      1.7408f     12.4006p    290.1312f     12.1087p  
    6.30957k      2.1915f     15.6114p    365.2535f     15.2440p  
    7.94328k      2.7590f     19.6536p    459.8269f     19.1910p  
   10.00000k      3.4733f     24.7424p    578.8878f     24.1601p  
   12.58925k      4.3727f     31.1489p    728.7766f     30.4157p  
   15.84893k      5.5049f     39.2141p    917.4754f     38.2911p  
   19.95262k      6.9302f     49.3677p      1.1550p     48.2057p  
   25.11886k      8.7246f     62.1502p      1.4541p     60.6874p  
   31.62278k     10.9836f     78.2425p      1.8306p     76.4009p  
   39.81072k     13.8276f     98.5014p      2.3046p     96.1830p  
   50.11872k     17.4079f    124.0060p      2.9013p    121.0873p  
   63.09573k     21.9152f    156.1143p      3.6525p    152.4398p  
   79.43282k     27.5896f    196.5362p      4.5983p    191.9103p  
  100.00000k     34.7333f    247.4244p      5.7889p    241.6008p  
  125.89254k     43.7266f    311.4889p      7.2878p    304.1574p  
  158.48932k     55.0485f    392.1413p      9.1748p    382.9115p  
  199.52623k     69.3020f    493.6767p     11.5503p    482.0570p  
  251.18864k     87.2460f    621.5021p     14.5410p    606.8738p  
  316.22777k    109.8362f    782.4247p     18.3060p    764.0089p  
  398.10717k    138.2756f    985.0144p     23.0459p    961.8302p  
  501.18723k    174.0787f      1.2401n     29.0131p      1.2109n  
  630.95734k    219.1521f      1.5611n     36.5254p      1.5244n  
  794.32823k    275.8961f      1.9654n     45.9827p      1.9191n  
    1.00000x    347.3327f      2.4742n     57.8888p      2.4160n  
    1.25893x    437.2659f      3.1149n     72.8777p      3.0416n  
    1.58489x    550.4851f      3.9214n     91.7475p      3.8291n  
    1.99526x    693.0196f      4.9368n    115.5033p      4.8206n  
    2.51189x    872.4597f      6.2150n    145.4100p      6.0687n  
    3.16228x      1.0984p      7.8242n    183.0604p      7.6401n  
    3.98107x      1.3828p      9.8501n    230.4593p      9.6183n  
    5.01187x      1.7408p     12.4006n    290.1310p     12.1087n  
    6.30957x      2.1915p     15.6114n    365.2531p     15.2440n  
    7.94328x      2.7589p     19.6536n    459.8261p     19.1910n  
   10.00000x      3.4733p     24.7424n    578.8862p     24.1600n  
   12.58925x      4.3726p     31.1488n    728.7734p     30.4156n  
   15.84893x      5.5047p     39.2139n    917.4689p     38.2909n  
   19.95262x      6.9300p     49.3671n      1.1550n     48.2052n  
   25.11886x      8.7242p     62.1491n      1.4541n     60.6863n  
   31.62278x     10.9829p     78.2403n      1.8306n     76.3988n  
   39.81072x     13.8264p     98.4971n      2.3045n     96.1788n  
   50.11872x     17.4058p    123.9973n      2.9011n    121.0788n  
   63.09573x     21.9116p    156.0969n      3.6521n    152.4229n  
   79.43282x     27.5832p    196.5016n      4.5975n    191.8766n  
  100.00000x     34.7215p    247.3554n      5.7873n    241.5334n  
  125.89254x     43.7046p    311.3512n      7.2845n    304.0230n  
  158.48932x     55.0066p    391.8667n      9.1683n    382.6434n  
  199.52623x     69.2208p    493.1292n     11.5375n    481.5224n  
  251.18864x     87.0873p    620.4109n     14.5155n    605.8083n  
  316.22777x    109.5241p    780.2512n     18.2552n    761.8865n  
  398.10717x    137.6596p    980.6889n     22.9447n    957.6065n  
  501.18723x    172.8610p      1.2315u     28.8120n      1.2025u  
  630.95734x    216.7463p      1.5441u     36.1267n      1.5078u  
  794.32823x    271.1546p      1.9317u     45.1954n      1.8862u  
    1.00000g    338.0335p      2.4082u     56.3426n      2.3515u  
    1.25893g    419.1773p      2.9862u     69.8675n      2.9159u  
    1.58489g    515.7415p      3.6742u     85.9627n      3.5877u  
    1.99526g    627.5124p      4.4704u    104.5926n      4.3652u  
    2.51189g    752.0982p      5.3580u    125.3587n      5.2319u  
    3.16228g    884.5597p      6.3017u    147.4378n      6.1534u  
    3.98107g      1.0182n      7.2541u    169.7213n      7.0834u  
    5.01187g      1.1472n      8.1726u    191.2103n      7.9802u  
    6.30957g      1.2690n      9.0408u    211.5225n      8.8280u  
    7.94328g      1.3873n      9.8834u    231.2381n      9.6508u  
   10.00000g      1.5115n     10.7685u    251.9451n     10.5150u  
   12.58925g      1.6562n     11.8000u    276.0789n     11.5222u  
   15.84893g      1.8400n     13.1098u    306.7251n     12.8013u  
   19.95262g      2.0843n     14.8512u    347.4678n     14.5017u  
   25.11886g      2.4132n     17.1952u    402.3087n     16.7905u  
   31.62278g      2.8532n     20.3314u    475.6849n     19.8529u  
   39.81072g      3.4345n     24.4747u    572.6235n     23.8986u  
   50.11872g      4.1923n     29.8776u    699.0339n     29.1744u  
   63.09573g      5.1699n     36.8476u    862.1068n     35.9803u  
   79.43282g      6.4207n     45.7670u      1.0708u     44.6898u  
  100.00000g      8.0122n     57.1171u      1.3363u     55.7728u  
  125.89254g     10.0297n     71.5055u      1.6730u     69.8225u  
  158.48932g     12.5809n     89.7001u      2.0987u     87.5889u  
  199.52623g     15.8017n    112.6706u      2.6361u    110.0187u  
  251.18864g     19.8638n    141.6402u      3.3139u    138.3064u  
  316.22777g     24.9836n    178.1514u      4.1681u    173.9583u  
  398.10717g     31.4334n    224.1477u      5.2443u    218.8720u  
  501.18723g     39.5566n    282.0763u      6.5996u    275.4372u  
  630.95734g     49.7851n    355.0182u      8.3062u    346.6622u  
  794.32823g     62.6625n    446.8493u     10.4547u    436.3319u  
  1.0000e+12     78.8723n    562.4433u     13.1592u    549.2051u  
  1.2589e+12     99.2729n    707.9228u     16.5630u    691.2605u  
  1.5848e+12    124.9415n    890.9687u     20.8456u    869.9981u  
  1.9952e+12    157.2266n      1.1212m     26.2321u      1.0948m  
  2.5118e+12    197.8106n      1.4106m     33.0033u      1.3774m  
  3.1622e+12    248.7816n      1.7741m     41.5075u      1.7323m  
  3.9810e+12    312.7090n      2.2300m     52.1733u      2.1775m  
  5.0118e+12    392.7105n      2.8005m     65.5209u      2.7345m  
  6.3095e+12    492.4841n      3.5119m     82.1673u      3.4293m  
  7.9432e+12    616.2490n      4.3945m    102.8165u      4.2911m  
  1.0000e+13    768.4991n      5.4802m    128.2182u      5.3512m  
  1.2589e+13    953.4118n      6.7988m    159.0693u      6.6388m  
  1.5848e+13      1.1737u      8.3698m    195.8252u      8.1728m  
  1.9952e+13      1.4289u     10.1895m    238.4000u      9.9497m  
  2.5118e+13      1.7130u     12.2153m    285.7970u     11.9278m  
  3.1622e+13      2.0129u     14.3544m    335.8426u     14.0165m  
  3.9810e+13      2.3095u     16.4690m    385.3189u     16.0814m  
  5.0118e+13      2.5814u     18.4083m    430.6918u     17.9751m  
  6.3095e+13      2.8121u     20.0535m    469.1822u     19.5815m  
  7.9432e+13      2.9940u     21.3506m    499.5302u     20.8481m  
  1.0000e+14      3.1288u     22.3113m    522.0073u     21.7862m  
  1.2589e+14      3.2237u     22.9886m    537.8544u     22.4475m  
  1.5848e+14      3.2883u     23.4491m    548.6285u     22.8972m  
  1.9952e+14      3.3311u     23.7543m    555.7692u     23.1952m  
  2.5118e+14      3.3590u     23.9531m    560.4208u     23.3894m  
  3.1622e+14      3.3770u     24.0812m    563.4165u     23.5144m  
  3.9810e+14      3.3884u     24.1630m    565.3316u     23.5943m  
  5.0118e+14      3.3957u     24.2151m    566.5500u     23.6452m  
  6.3095e+14      3.4004u     24.2481m    567.3228u     23.6774m  
  7.9432e+14      3.4033u     24.2690m    567.8121u     23.6978m  
  1.0000e+15      3.4052u     24.2823m    568.1215u     23.7107m  
  1.2589e+15      3.4063u     24.2906m    568.3169u     23.7189m  
  1.5848e+15      3.4071u     24.2959m    568.4404u     23.7241m  
  1.9952e+15      3.4075u     24.2992m    568.5182u     23.7273m  
  2.5118e+15      3.4078u     24.3013m    568.5674u     23.7294m  
  3.1622e+15      3.4080u     24.3027m    568.5985u     23.7307m  
  3.9810e+15      3.4081u     24.3035m    568.6181u     23.7315m  
  5.0118e+15      3.4082u     24.3040m    568.6304u     23.7320m  
  6.3095e+15      3.4082u     24.3044m    568.6382u     23.7323m  
  7.9432e+15      3.4083u     24.3046m    568.6431u     23.7325m  
  1.0000e+16      3.4083u     24.3047m    568.6463u     23.7326m  
y
x

        freq    current 1    current 2    current 3    current 4  
                    m4           m4           m4           m4     
    1.00000k    418.9669a    991.4735f    984.3995f      7.4927f  
    1.25893k    527.6794a      1.2482p      1.2393p      9.4327f  
    1.58489k    664.7705a      1.5714p      1.5602p     11.8751f  
    1.99526k    837.8164a      1.9782p      1.9641p     14.9499f  
    2.51189k      1.0566f      2.4905p      2.4727p     18.8208f  
    3.16228k      1.3338f      3.1353p      3.1129p     23.6940f  
    3.98107k      1.6864f      3.9471p      3.9190p     29.8290f  
    5.01187k      2.1375f      4.9691p      4.9337p     37.5524f  
    6.30957k      2.7194f      6.2558p      6.2111p     47.2757f  
    7.94328k      3.4796f      7.8756p      7.8194p     59.5166f  
   10.00000k      4.4901f      9.9147p      9.8440p     74.9270f  
   12.58925k      5.8647f     12.4819p     12.3929p     94.3275f  
   15.84893k      7.7875f     15.7138p     15.6017p    118.7512f  
   19.95262k     10.5604f     19.7825p     19.6413p    149.4989f  
   25.11886k     14.6781f     24.9047p     24.7270p    188.2080f  
   31.62278k     20.9444f     31.3531p     31.1294p    236.9399f  
   39.81072k     30.6497f     39.4713p     39.1896p    298.2896f  
   50.11872k     45.8495f     49.6914p     49.3368p    375.5244f  
   63.09573k     69.8018f     62.5578p     62.1113p    472.7571f  
   79.43282k    107.6652f     78.7555p     78.1934p    595.1660f  
  100.00000k    167.6068f     99.1474p     98.4395p    749.2696f  
  125.89254k    262.5621f    124.8191p    123.9277p    943.2745f  
  158.48932k    413.0252f    157.1380p    156.0152p      1.1875p  
  199.52623k    651.4709f    197.8250p    196.4103p      1.4950p  
  251.18864k      1.0294p    249.0469p    247.2635p      1.8821p  
  316.22777k      1.6283p    313.5315p    311.2816p      2.3694p  
  398.10717k      2.5774p    394.7127p    391.8708p      2.9829p  
  501.18723k      4.0815p    496.9138p    493.3172p      3.7552p  
  630.95734k      6.4650p    625.5775p    621.0117p      4.7276p  
  794.32823k     10.2419p    787.5554p    781.7321p      5.9517p  
    1.00000x     16.2259p    991.4735p    983.9921p      7.4927p  
    1.25893x     25.7048p      1.2482n      1.2385n      9.4327p  
    1.58489x     40.7152p      1.5714n      1.5585n     11.8751p  
    1.99526x     64.4736p      1.9782n      1.9609n     14.9499p  
    2.51189x    102.0492p      2.4905n      2.4663n     18.8208p  
    3.16228x    161.4053p      3.1353n      3.1002n     23.6940p  
    3.98107x    254.9881p      3.9471n      3.8936n     29.8289p  
    5.01187x    402.0940p      4.9691n      4.8835n     37.5524p  
    6.30957x    632.2675p      6.2558n      6.1123n     47.2757p  
    7.94328x    989.8742p      7.8755n      7.6260n     59.5165p  
   10.00000x      1.5396n      9.9147n      9.4700n     74.9268p  
   12.58925x      2.3717n     12.4818n     11.6808n     94.3270p  
   15.84893x      3.6042n     15.7136n     14.2767n    118.7504p  
   19.95262x      5.3790n     19.7821n     17.2511n    149.4973p  
   25.11886x      7.8497n     24.9039n     20.5823n    188.2047p  
   31.62278x     11.1669n     31.3517n     24.2690n    236.9332p  
   39.81072x     15.4748n     39.4687n     28.3891n    298.2764p  
   50.11872x     20.9291n     49.6867n     33.1505n    375.4980p  
   63.09573x     27.7305n     62.5492n     38.9053n    472.7046p  
   79.43282x     36.1593n     78.7395n     46.1269n    595.0612p  
  100.00000x     46.6024n     99.1168n     55.3789n    749.0606p  
  125.89254x     59.5733n    124.7602n     67.3033n    942.8576p  
  158.48932x     75.7330n    157.0231n     82.6386n      1.1867n  
  199.52623x     95.9168n    197.5994n    102.2596n      1.4933n  
  251.18864x    121.1689n    248.6018n    127.2285n      1.8788n  
  316.22777x    152.7833n    312.6506n    158.8502n      2.3628n  
  398.10717x    192.3486n    392.9669n    198.7258n      2.9698n  
  501.18723x    241.7875n    493.4540n    248.7976n      3.7292n  
  630.95734x    303.3732n    618.7302n    311.3673n      4.6760n  
  794.32823x    379.6885n    774.0458n    389.0548n      5.8498n  
    1.00000g    473.4685n    964.9605n    484.6361n      7.2926n  
    1.25893g    587.2347n      1.1966u    600.6675n      9.0431n  
    1.58489g    722.6170n      1.4723u    738.7888n     11.1264n  
    1.99526g    879.3324n      1.7913u    898.6743n     13.5377n  
    2.51189g      1.0541u      2.1470u      1.0769u     16.2255n  
    3.16228g      1.2399u      2.5251u      1.2663u     19.0833n  
    3.98107g      1.4276u      2.9067u      1.4573u     21.9675n  
    5.01187g      1.6089u      3.2748u      1.6413u     24.7488n  
    6.30957g      1.7805u      3.6226u      1.8148u     27.3779n  
    7.94328g      1.9475u      3.9602u      1.9829u     29.9298n  
   10.00000g      2.1232u      4.3148u      2.1591u     32.6099n  
   12.58925g      2.3282u      4.7281u      2.3642u     35.7336n  
   15.84893g      2.5885u      5.2528u      2.6247u     39.7002n  
   19.95262g      2.9343u      5.9505u      2.9713u     44.9737n  
   25.11886g      3.3994u      6.8895u      3.4382u     52.0719n  
   31.62278g      4.0215u      8.1459u      4.0629u     61.5691n  
   39.81072g      4.8435u      9.8056u      4.8881u     74.1162n  
   50.11872g      5.9157u     11.9698u      5.9638u     90.4778n  
   63.09573g      7.2996u     14.7615u      7.3505u    111.5847n  
   79.43282g      9.0713u     18.3339u      9.1241u    138.5952n  
  100.00000g     11.3267u     22.8795u     11.3799u    172.9664n  
  125.89254g     14.1864u     28.6419u     14.2391u    216.5386n  
  158.48932g     17.8025u     35.9286u     17.8546u    271.6369n  
  199.52623g     22.3674u     45.1280u     22.4195u    341.1977n  
  251.18864g     28.1239u     56.7301u     28.1773u    428.9257n  
  316.22777g     35.3782u     71.3527u     35.4351u    539.4918n  
  398.10717g     44.5163u     89.7742u     44.5792u    678.7812n  
  501.18723g     56.0243u    112.9748u     56.0963u    854.2053n  
  630.95734g     70.5142u    142.1883u     70.5990u      1.0751u  
  794.32823g     88.7560u    178.9672u     88.8580u      1.3532u  
  1.0000e+12    111.7177u    225.2633u    111.8424u      1.7032u  
  1.2589e+12    140.6155u    283.5288u    140.7695u      2.1438u  
  1.5848e+12    176.9753u    356.8399u    177.1666u      2.6981u  
  1.9952e+12    222.7070u    449.0481u    222.9458u      3.3953u  
  2.5118e+12    280.1939u    564.9583u    280.4928u      4.2717u  
  3.1622e+12    352.3937u    710.5344u    352.7683u      5.3724u  
  3.9810e+12    442.9458u    893.1144u    443.4156u      6.7529u  
  5.0118e+12    556.2667u      1.1216m    556.8556u      8.4805u  
  6.3095e+12    697.5944u      1.4066m    698.3316u     10.6351u  
  7.9432e+12    872.9052u      1.7600m    873.8266u     13.3078u  
  1.0000e+13      1.0886m      2.1949m      1.0897m     16.5956u  
  1.2589e+13      1.3505m      2.7230m      1.3519m     20.5888u  
  1.5848e+13      1.6625m      3.3522m      1.6643m     25.3462u  
  1.9952e+13      2.0240m      4.0810m      2.0261m     30.8567u  
  2.5118e+13      2.4264m      4.8924m      2.4290m     36.9914u  
  3.1622e+13      2.8513m      5.7490m      2.8543m     43.4690u  
  3.9810e+13      3.2713m      6.5960m      3.2748m     49.8728u  
  5.0118e+13      3.6566m      7.3727m      3.6604m     55.7456u  
  6.3095e+13      3.9833m      8.0316m      3.9875m     60.7275u  
  7.9432e+13      4.2410m      8.5511m      4.2455m     64.6555u  
  1.0000e+14      4.4318m      8.9359m      4.4365m     67.5648u  
  1.2589e+14      4.5664m      9.2071m      4.5712m     69.6159u  
  1.5848e+14      4.6578m      9.3916m      4.6627m     71.0104u  
  1.9952e+14      4.7185m      9.5138m      4.7234m     71.9347u  
  2.5118e+14      4.7580m      9.5934m      4.7630m     72.5367u  
  3.1622e+14      4.7834m      9.6447m      4.7884m     72.9245u  
  3.9810e+14      4.7996m      9.6775m      4.8047m     73.1723u  
  5.0118e+14      4.8100m      9.6984m      4.8150m     73.3300u  
  6.3095e+14      4.8166m      9.7116m      4.8216m     73.4301u  
  7.9432e+14      4.8207m      9.7200m      4.8258m     73.4934u  
  1.0000e+15      4.8233m      9.7253m      4.8284m     73.5334u  
  1.2589e+15      4.8250m      9.7286m      4.8301m     73.5587u  
  1.5848e+15      4.8260m      9.7307m      4.8311m     73.5747u  
  1.9952e+15      4.8267m      9.7321m      4.8318m     73.5848u  
  2.5118e+15      4.8271m      9.7329m      4.8322m     73.5912u  
  3.1622e+15      4.8274m      9.7334m      4.8325m     73.5952u  
  3.9810e+15      4.8275m      9.7338m      4.8326m     73.5977u  
  5.0118e+15      4.8277m      9.7340m      4.8327m     73.5993u  
  6.3095e+15      4.8277m      9.7341m      4.8328m     73.6003u  
  7.9432e+15      4.8278m      9.7342m      4.8328m     73.6010u  
  1.0000e+16      4.8278m      9.7343m      4.8329m     73.6014u  
y
x

        freq    current      current      current    
                    rin          r2           r3     
    1.00000k      3.1827p     68.5740a     45.7160a  
    1.25893k      4.0068p     87.5654a     58.3769a  
    1.58489k      5.0443p    112.6601a     75.1067a  
    1.99526k      6.3504p    146.5329a     97.6886a  
    2.51189k      7.9947p    193.4856a    128.9904a  
    3.16228k     10.0647p    260.5547a    173.7031a  
    3.98107k     12.6707p    359.2868a    239.5245a  
    5.01187k     15.9515p    508.4989a    338.9993a  
    6.30957k     20.0818p    738.5149a    492.3433a  
    7.94328k     25.2815p      1.0977f    731.8199a  
   10.00000k     31.8275p      1.6629f      1.1086f  
   12.58925k     40.0684p      2.5558f      1.7038f  
   15.84893k     50.4432p      3.9687f      2.6458f  
   19.95262k     63.5042p      6.2067f      4.1378f  
   25.11886k     79.9470p      9.7527f      6.5018f  
   31.62278k    100.6473p     15.3721f     10.2481f  
   39.81072k    126.7075p     24.2779f     16.1853f  
   50.11872k    159.5153p     38.3925f     25.5950f  
   63.09573k    200.8178p     60.7623f     40.5082f  
   79.43282k    252.8147p     96.2160f     64.1440f  
  100.00000k    318.2748p    152.4060f    101.6040f  
  125.89254k    400.6843p    241.4607f    160.9738f  
  158.48932k    504.4316p    382.6016f    255.0677f  
  199.52623k    635.0417p    606.2919f    404.1946f  
  251.18864k    799.4702p    960.8096f    640.5397f  
  316.22777k      1.0065n      1.5227p      1.0151p  
  398.10717k      1.2671n      2.4131p      1.6087p  
  501.18723k      1.5952n      3.8242p      2.5495p  
  630.95734k      2.0082n      6.0604p      4.0403p  
  794.32823k      2.5281n      9.6037p      6.4025p  
    1.00000x      3.1827n     15.2177p     10.1451p  
    1.25893x      4.0068n     24.1105p     16.0737p  
    1.58489x      5.0443n     38.1929p     25.4619p  
    1.99526x      6.3504n     60.4822p     40.3215p  
    2.51189x      7.9947n     95.7345p     63.8230p  
    3.16228x     10.0647n    151.4206p    100.9470p  
    3.98107x     12.6707n    239.2171p    159.4780p  
    5.01187x     15.9515n    377.2273p    251.4848p  
    6.30957x     20.0818n    593.1689p    395.4459p  
    7.94328x     25.2814n    928.6645p    619.1096p  
   10.00000x     31.8274n      1.4444n    962.9302p  
   12.58925x     40.0683n      2.2250n      1.4833n  
   15.84893x     50.4430n      3.3813n      2.2542n  
   19.95262x     63.5038n      5.0464n      3.3643n  
   25.11886x     79.9463n      7.3644n      4.9096n  
   31.62278x    100.6459n     10.4764n      6.9843n  
   39.81072x    126.7047n     14.5180n      9.6786n  
   50.11872x    159.5097n     19.6350n     13.0899n  
   63.09573x    200.8067n     26.0158n     17.3437n  
   79.43282x    252.7926n     33.9233n     22.6152n  
  100.00000x    318.2307n     43.7205n     29.1462n  
  125.89254x    400.5963n     55.8890n     37.2577n  
  158.48932x    504.2561n     71.0486n     47.3626n  
  199.52623x    634.6919n     89.9828n     59.9821n  
  251.18864x    798.7731n    113.6701n     75.7672n  
  316.22777x      1.0051u    143.3229n     95.5230n  
  398.10717x      1.2643u    180.4282n    120.2344n  
  501.18723x      1.5897u    226.7833n    151.0872n  
  630.95734x      1.9973u    284.5075n    189.4696n  
  794.32823x      2.5067u    355.9984n    236.9319n  
    1.00000g      3.1408u    443.7722n    295.0584n  
    1.25893g      3.9255u    550.1002n    365.1855n  
    1.58489g      4.8889u    676.3366n    447.8859n  
    1.99526g      6.0598u    821.9034n    542.1811n  
    2.51189g      7.4673u    983.1509n    644.6236n  
    3.16228g      9.1441u      1.1528u    748.7180n  
    3.98107g     11.1373u      1.3209u    845.4121n  
    5.01187g     13.5252u      1.4780u    925.0390n  
    6.30957g     16.4345u      1.6193u    980.0271n  
    7.94328g     20.0468u      1.7473u      1.0070u  
   10.00000g     24.5963u      1.8725u      1.0072u  
   12.58925g     30.3677u      2.0116u    986.0989n  
   15.84893g     37.7021u      2.1852u    951.0456n  
   19.95262g     47.0130u      2.4143u    909.1731n  
   25.11886g     58.8103u      2.7164u    865.0757n  
   31.62278g     73.7303u      3.1019u    819.9708n  
   39.81072g     92.5719u      3.5699u    772.3229n  
   50.11872g    116.3408u      4.1039u    719.3704n  
   63.09573g    146.3039u      4.6715u    658.8933n  
   79.43282g    184.0574u      5.2284u    590.6719n  
  100.00000g    231.6121u      5.7311u    517.0341n  
  125.89254g    291.5005u      6.1491u    442.1394n  
  158.48932g    366.9117u      6.4723u    370.4423n  
  199.52623g    461.8610u      6.7073u    305.3356n  
  251.18864g    581.4039u      6.8702u    248.6166n  
  316.22777g    731.9043u      6.9786u    200.6804n  
  398.10717g    921.3726u      7.0480u    161.0088n  
  501.18723g      1.1599m      7.0898u    128.6316n  
  630.95734g      1.4601m      7.1115u    102.4412n  
  794.32823g      1.8381m      7.1171u     81.3671n  
  1.0000e+12      2.3138m      7.1078u     64.4555n  
  1.2589e+12      2.9124m      7.0816u     50.8934n  
  1.5848e+12      3.6656m      7.0338u     40.0060n  
  1.9952e+12      4.6129m      6.9554u     31.2432n  
  2.5118e+12      5.8036m      6.8337u     24.1640n  
  3.1622e+12      7.2992m      6.6511u     18.4220n  
  3.9810e+12      9.1748m      6.3875u     13.7558n  
  5.0118e+12     11.5221m      6.0241u      9.9792n  
  6.3095e+12     14.4494m      5.5517u      6.9695n  
  7.9432e+12     18.0807m      4.9788u      4.6452n  
  1.0000e+13     22.5477m      4.3343u      2.9355n  
  1.2589e+13     27.9730m      3.6615u      1.7539n  
  1.5848e+13     34.4367m      3.0045u    991.8669p  
  1.9952e+13     41.9237m      2.3972u    532.8492p  
  2.5118e+13     50.2587m      1.8602u    273.1145p  
  3.1622e+13     59.0595m      1.4026u    134.0561p  
  3.9810e+13     67.7601m      1.0265u     63.2007p  
  5.0118e+13     75.7391m    729.0299n     28.7076p  
  6.3095e+13     82.5078m    503.3414n     12.6157p  
  7.9432e+13     87.8447m    339.0919n      5.3926p  
  1.0000e+14     91.7974m    223.9829n      2.2555p  
  1.2589e+14     94.5842m    145.7801n    928.3436f  
  1.5848e+14     96.4789m     93.8912n    377.7962f  
  1.9952e+14     97.7346m     60.0397n    152.5685f  
  2.5118e+14     98.5526m     38.2106n     61.2997f  
  3.1622e+14     99.0794m     24.2425n     24.5476f  
  3.9810e+14     99.4162m     15.3497n      9.8092f  
  5.0118e+14     99.6304m      9.7066n      3.9144f  
  6.3095e+14     99.7663m      6.1331n      1.5607f  
  7.9432e+14     99.8524m      3.8732n    621.9046a  
  1.0000e+15     99.9068m      2.4452n    247.7331a  
  1.2589e+15     99.9412m      1.5434n     98.6616a  
  1.5848e+15     99.9629m    974.0077p     39.2873a  
  1.9952e+15     99.9766m    614.6444p     15.6429a  
  2.5118e+15     99.9852m    387.8490p      6.2281a  
  3.1622e+15     99.9907m    244.7300p      2.4796a  
  3.9810e+15     99.9941m    154.4197p    9.872e-19  
  5.0118e+15     99.9963m     97.4344p    3.930e-19  
  6.3095e+15     99.9977m     61.4778p    1.565e-19  
  7.9432e+15     99.9985m     38.7902p    6.229e-20  
  1.0000e+16     99.9991m     24.4751p    2.480e-20  
y

          ***** job concluded
1****** HSPICE -- D-2010.03-SP1 32-BIT (May 26 2010) winnt ******               
 ******  
 * non-inverting buffer

  ******  job statistics summary tnom=  25.000 temp=  25.000 *****

  ******  HSPICE Threads Information  ******

  Command Line Threads Count                  :     1
  Available CPU Count                         :    12
  Actual Model Evaluation(Load) Threads Count :     1
  Actual Solver Threads Count                 :     1


  ******  Circuit Statistics  ******
  # nodes       =      26 # elements   =      30
  # resistors   =       3 # capacitors =       3 # inductors   =       2
  # mutual_inds =       0 # vccs       =       0 # vcvs        =       0
  # cccs        =       0 # ccvs       =       0 # volt_srcs   =      18
  # curr_srcs   =       0 # diodes     =       0 # bjts        =       0
  # jfets       =       0 # mosfets    =       4 # U elements  =       0
  # T elements  =       0 # W elements =       0 # B elements  =       0
  # S elements  =       0 # P elements =       0 # va device   =       0


  ******  Runtime Statistics (seconds)  ******

  analysis           time    # points   tot. iter  conv.iter
  op point           0.03           1          11
  ac analysis        0.52         131         131
  readin             0.30
  errchk             0.05
  setup              0.11
  output             0.01


           total memory used          178  kbytes
           total cpu time            1.19 seconds
           total elapsed time        1.62 seconds
           job started at     02:18:30 05/22/2012
           job ended   at     02:18:32 05/22/2012


  lic: Release hspice token(s) 
