 ****** HSPICE -- D-2010.03-SP1 32-BIT (May 26 2010) winnt ******               
  Copyright (C) 2010 Synopsys, Inc. All Rights Reserved.                        
  Unpublished-rights reserved under US copyright laws.
  This program is protected by law and is subject to the 
  terms and conditions of the license agreement from Synopsys.
  Use of this program is your acceptance to be bound by the 
  license agreement. HSPICE is the trademark of Synopsys, Inc.
  Input File: d:\synopsys\hspice\trytry\buffer.sp                               
  lic:  
  lic: FLEXlm: v8.5b 
  lic: USER:   zrc                  HOSTNAME: LAPTOP-O4SR7NUK 
  lic: HOSTID: "005056c00001 00ffd46088fe a87eea1f533c 005056c00008 a87eea1f5338
  
  lic: Using FLEXlm license file: 
  lic: C:\flexlm\hspice.dat 
  lic: Checkout 1 hspice 
  lic: License/Maintenance for hspice will expire on 31-dec-2020/2007.9 
  lic: NODE LOCKED license on hostid "005056c00001 00ffd46088fe a87eea1f533c 005
 0
  lic:   
 Init: read install configuration file: D:\synopsys\Hspice_D-2010.03-SP1\meta.cfg
 scientific notation:
 a=10**-18  f=10**-15  p=10**-12  n=10**-9  u=10**-6
 m=10**-3   k=10**3    x=10**6    g=10**9 


 circuit parameter definitions
  parameter          =  value 





 constants  - tnom         kt           vt           gapsi        ni
            298.15000    4.1163e-21    25.69184m     1.11562    1.2565e+16 
1****** HSPICE -- D-2010.03-SP1 32-BIT (May 26 2010) winnt ******               
 ******  
 * non-inverting buffer

  ******  mos   model parameters tnom=  25.000 temp=  25.000 *****
 ***************************************************************************
 *** common model parameters  model name:   0:modp     model type:pmos   ***
 ***************************************************************************
     names  values   units     names  values   units     names  values   units
     -----  ------   -----     -----  ------   -----     -----  ------   -----

   1*** geometry parameters ***
       ld=   0.    meters      lmlt=   1.00                wd=   0.    meters 
     wmlt=   1.00                xl=   0.    meters        xw=   0.    meters 
     lref=   0.    meters      wref=   0.    meters      lref=   0.    meters 
     wref=   0.    meters     xlref=   0.    meters     xwref=   0.    meters 
     lmin=   0.    meters      wmin=   0.    meters      lmax=   0.    meters 
     wmax=   0.    meters 

   2*** threshold voltage parameters ***
      vto=-750.00m volts        nss=   0.    1/cm**2      tpg=   1.00         
      phi= 579.84m volts      gamma=   6.07  v**0.5      bulk=  gnd           
    ngate=   0.    cm**3       nsub= 1.0e+15 1/cm**3   delvto=   0.    volts  

   3*** gate overlap capacitance parameters ***
     cgbo=   0.    f/meter     cgdo=   0.    f/meter     cgso=   0.    f/meter
     meto=   0.    meters 

   4*** gate capacitance parameters ***
    capop=   2.00               cf1=   0.    volts        cf2= 100.00m volts  
      cf3=   1.00  volts        cf4=  50.00               cf5= 666.67m        
      cf6= 500.00               xqc= 500.00m              tox=   1.15u meters 
      cox=  30.00u f/m**2 

   5*** diffusion parasitic parameters ***
      acm=   0.                  is=  10.00f amps          js=   0.    a/m**2 
      jsw=   0.    amp/m        nds=   1.00               cbd=   0.    farad  
      cbs=   0.    farad         cj= 101.85u f/m**2      cjsw=   0.    f/m    
   cjgate=   0.    f/m           mj= 500.00m             mjsw= 330.00m        
       pb= 800.00m volts        php= 800.00m volts         tt=   0.    secs   
     hdif=   0.    meters      ldif=   0.    meters        rd=   0.    ohms   
       rs=   0.    ohms         rsh=   0.    ohms/sq       fc=   0.           
    alpha=   0.                 vcr=   0.    volts      iirat=   0.           
      rdc=   0.    ohms         rsc=   0.    ohms           n=   1.00         
     vnds=  -1.00  volts  

   6*** temperature effect parameters ***
     tlev=   0.               tlevc=   0.                  eg=   1.11  ev     
     gap1= 702.00u ev/deg      gap2=   1.11k deg          xti=   0.           
      bex=  -1.50               tcv=   0.    v/deg k      trd=   0.    /deg   
      trs=   0.    /deg         cta=   0.    /deg         ctp=   0.    /deg   

   7*** noise parameters ***
       kf=   0.                  af=   1.00              nlev=   2.00         
   gdsnoi=   1.00         

   ***  level  2  model parameters  ***

    delta=   0.               ecrit=   0.    v/m       lambda=  50.00m /v     
      nfs=   0.    1/cm**2    ucrit=  10.00k v/cm        uexp=   0.           
     utra=   0.                  uo= 500.00 cm**2/vs       xj=   0.    meters 
     neff=   1.00              vmax=   0.     m/sec        kp=   1.50u a/v**2 
      mob=-1.2e-29            deriv=   0.           
 ***************************************************************************
 *** common model parameters  model name:   0:modn     model type:nmos   ***
 ***************************************************************************
     names  values   units     names  values   units     names  values   units
     -----  ------   -----     -----  ------   -----     -----  ------   -----

   1*** geometry parameters ***
       ld=   0.    meters      lmlt=   1.00                wd=   0.    meters 
     wmlt=   1.00                xl=   0.    meters        xw=   0.    meters 
     lref=   0.    meters      wref=   0.    meters      lref=   0.    meters 
     wref=   0.    meters     xlref=   0.    meters     xwref=   0.    meters 
     lmin=   0.    meters      wmin=   0.    meters      lmax=   0.    meters 
     wmax=   0.    meters 

   2*** threshold voltage parameters ***
      vto= 830.00m volts        nss=   0.    1/cm**2      tpg=   1.00         
      phi= 579.84m volts      gamma=   6.07  v**0.5      bulk=  gnd           
    ngate=   0.    cm**3       nsub= 1.0e+15 1/cm**3   delvto=   0.    volts  

   3*** gate overlap capacitance parameters ***
     cgbo=   0.    f/meter     cgdo=   0.    f/meter     cgso=   0.    f/meter
     meto=   0.    meters 

   4*** gate capacitance parameters ***
    capop=   2.00               cf1=   0.    volts        cf2= 100.00m volts  
      cf3=   1.00  volts        cf4=  50.00               cf5= 666.67m        
      cf6= 500.00               xqc= 500.00m              tox=   1.15u meters 
      cox=  30.00u f/m**2 

   5*** diffusion parasitic parameters ***
      acm=   0.                  is=  10.00f amps          js=   0.    a/m**2 
      jsw=   0.    amp/m        nds=   1.00               cbd=   0.    farad  
      cbs=   0.    farad         cj= 101.85u f/m**2      cjsw=   0.    f/m    
   cjgate=   0.    f/m           mj= 500.00m             mjsw= 330.00m        
       pb= 800.00m volts        php= 800.00m volts         tt=   0.    secs   
     hdif=   0.    meters      ldif=   0.    meters        rd=   0.    ohms   
       rs=   0.    ohms         rsh=   0.    ohms/sq       fc=   0.           
    alpha=   0.                 vcr=   0.    volts      iirat=   0.           
      rdc=   0.    ohms         rsc=   0.    ohms           n=   1.00         
     vnds=  -1.00  volts  

   6*** temperature effect parameters ***
     tlev=   0.               tlevc=   0.                  eg=   1.11  ev     
     gap1= 702.00u ev/deg      gap2=   1.11k deg          xti=   0.           
      bex=  -1.50               tcv=   0.    v/deg k      trd=   0.    /deg   
      trs=   0.    /deg         cta=   0.    /deg         ctp=   0.    /deg   

   7*** noise parameters ***
       kf=   0.                  af=   1.00              nlev=   2.00         
   gdsnoi=   1.00         

   ***  level  2  model parameters  ***

    delta=   0.               ecrit=   0.    v/m       lambda=  50.00m /v     
      nfs=   0.    1/cm**2    ucrit=  10.00k v/cm        uexp=   0.           
     utra=   0.                  uo=   1.50kcm**2/vs       xj=   0.    meters 
     neff=   1.00              vmax=   0.     m/sec        kp=   4.50u a/v**2 
      mob=-1.2e-29            deriv=   0.           
1****** HSPICE -- D-2010.03-SP1 32-BIT (May 26 2010) winnt ******               
 ******  
 * non-inverting buffer

  ******  circuit element summary tnom=  25.000 temp=  25.000 *****


 **** resistors

  
 
                                                
 element name        0:rin     0:r2      0:r3   
 node1               0:101     0:104     0:116  
 node2               0:102     0:115     0:117  
 model                                          
 res eff            10.0000   25.0000   35.0000 
 tc1                 0.        0.        0.     
 tc2                 0.        0.        0.     
 scale               1.0000    1.0000    1.0000 
 m                   1.0000    1.0000    1.0000 
 ac                 10.0000   25.0000   35.0000 
 temp               25.0000   25.0000   25.0000 
 l                   0.        0.        0.     
 w                   0.        0.        0.     
 cap                 0.        0.        0.     
 noise            1.000e+00 1.000e+00 1.000e+00 


 **** capacitors
  
 
                                                   
 element name        0:c1       0:c2       0:c3    
 node1               0:104      0:116      0:118   
 node2               0:0        0:0        0:0     
 model                                             
 cap eff           100.0000f  500.0000f    1.0000p 
 tc1                 0.         0.         0.      
 tc2                 0.         0.         0.      
 scale               1.0000     1.0000     1.0000  
 ic                  0.         0.         0.      
 m                   1.0000     1.0000     1.0000  
 w                   0.         0.         0.      
 l                   0.         0.         0.      
 temp               25.0000    25.0000    25.0000  


 **** inductors
  
 
                                        
 element name        0:l1       0:l2    
 node1               0:115      0:117   
 node2               0:116      0:118   
 model                                  
 ind eff           500.0000f  500.0000f 
 res eff             0.         0.      
 tc1                 0.         0.      
 tc2                 0.         0.      
 nt                  1.0000     1.0000  
 ic                  0.         0.      
 m                   1.0000     1.0000  


 **** independent sources

     name         node1        node2      dc volt    ac mag    ac phase    type
  vdd  103               0                    3.0000     0.         0.      dc   
  vin  101               0                    1.5000     0.         0.      dc   


 **** mosfets
  
 
                                                              
 element name        0:m1       0:m2       0:m3       0:m4    
 drain               0:107      0:107      0:104      0:104   
 gate                0:102      0:102      0:107      0:107   
 source              0:103      0:0        0:103      0:0     
 bulk                0:103      0:0        0:103      0:0     
 model               0:modp     0:modn     0:modp     0:modn  
 w eff              30.0000u   10.0000u   60.0000u   20.0000u 
 l eff             350.0000n  350.0000n  350.0000n  350.0000n 
 rd eff              0.         0.         0.         0.      
 rs eff              0.         0.         0.         0.      
 cdsat              10.0000f   10.0000f   10.0000f   10.0000f 
 cssat              10.0000f   10.0000f   10.0000f   10.0000f 
 capbd               0.         0.         0.         0.      
 capbs               0.         0.         0.         0.      
 temp               25.0000    25.0000    25.0000    25.0000  
 aic                                                          
  
 
1****** HSPICE -- D-2010.03-SP1 32-BIT (May 26 2010) winnt ******               
 ******  
 * non-inverting buffer

  ******  element node table
                                                                                      
 0                c1               c2               c3               vdd              
                  vin              m2:s             m2:b             m4:s             
                  m4:b                                                                
 101              rin              vin                                                
 102              rin              m1:g             m2:g                              
 103              vdd              m1:s             m1:b             m3:s             
                  m3:b                                                                
 104              r2               c1               m3:d             m4:d             
 107              m1:d             m2:d             m3:g             m4:g             
 115              r2               l1                                                 
 116              r3               c2               l1                                
 117              r3               l2                                                 
 118              c3               l2                                                 
 **info** set option symb=1 internally to help for convergence.
 *****************************************************************
 ******  option summary
 ******
 runlvl  = 3         bypass  = 2         

 **info** rebuilding matrix with pivot option

 ******  
 * non-inverting buffer

  ******  dc transfer curves tnom=  25.000 temp=  25.000 *****
x

        volt    current      current      current      current    
                    m1           m2           m3           m4     
    0.           -6.0300p      6.0300p     -6.0300p      6.0300p  
   10.00000m     -6.0299p      6.0300p     -6.0300p      6.0300p  
   20.00000m     -6.0299p      6.0300p     -6.0300p      6.0300p  
   30.00000m     -6.0299p      6.0300p     -6.0300p      6.0300p  
   40.00000m     -6.0299p      6.0300p     -6.0300p      6.0300p  
   50.00000m     -6.0299p      6.0300p     -6.0300p      6.0300p  
   60.00000m     -6.0299p      6.0300p     -6.0300p      6.0300p  
   70.00000m     -6.0299p      6.0300p     -6.0300p      6.0300p  
   80.00000m     -6.0299p      6.0300p     -6.0300p      6.0300p  
   90.00000m     -6.0299p      6.0300p     -6.0300p      6.0300p  
  100.00000m     -6.0299p      6.0300p     -6.0300p      6.0300p  
  110.00000m     -6.0299p      6.0300p     -6.0300p      6.0300p  
  120.00000m     -6.0299p      6.0300p     -6.0300p      6.0300p  
  130.00000m     -6.0299p      6.0300p     -6.0300p      6.0300p  
  140.00000m     -6.0299p      6.0300p     -6.0300p      6.0300p  
  150.00000m     -6.0299p      6.0300p     -6.0300p      6.0300p  
  160.00000m     -6.0299p      6.0300p     -6.0300p      6.0300p  
  170.00000m     -6.0299p      6.0300p     -6.0300p      6.0300p  
  180.00000m     -6.0299p      6.0300p     -6.0300p      6.0300p  
  190.00000m     -6.0299p      6.0300p     -6.0300p      6.0300p  
  200.00000m     -6.0299p      6.0300p     -6.0300p      6.0300p  
  210.00000m     -6.0299p      6.0300p     -6.0300p      6.0300p  
  220.00000m     -6.0299p      6.0300p     -6.0300p      6.0300p  
  230.00000m     -6.0299p      6.0300p     -6.0300p      6.0300p  
  240.00000m     -6.0299p      6.0300p     -6.0300p      6.0300p  
  250.00000m     -6.0299p      6.0300p     -6.0300p      6.0300p  
  260.00000m     -6.0298p      6.0300p     -6.0300p      6.0300p  
  270.00000m     -6.0298p      6.0300p     -6.0300p      6.0300p  
  280.00000m     -6.0298p      6.0300p     -6.0300p      6.0300p  
  290.00000m     -6.0298p      6.0300p     -6.0300p      6.0300p  
  300.00000m     -6.0298p      6.0300p     -6.0300p      6.0300p  
  310.00000m     -6.0298p      6.0300p     -6.0300p      6.0300p  
  320.00000m     -6.0298p      6.0300p     -6.0300p      6.0300p  
  330.00000m     -6.0298p      6.0300p     -6.0300p      6.0300p  
  340.00000m     -6.0298p      6.0300p     -6.0300p      6.0300p  
  350.00000m     -6.0298p      6.0300p     -6.0300p      6.0300p  
  360.00000m     -6.0298p      6.0300p     -6.0300p      6.0300p  
  370.00000m     -6.0298p      6.0300p     -6.0300p      6.0300p  
  380.00000m     -6.0298p      6.0300p     -6.0300p      6.0300p  
  390.00000m     -6.0298p      6.0300p     -6.0300p      6.0300p  
  400.00000m     -6.0298p      6.0300p     -6.0300p      6.0300p  
  410.00000m     -6.0298p      6.0300p     -6.0300p      6.0300p  
  420.00000m     -6.0298p      6.0300p     -6.0300p      6.0300p  
  430.00000m     -6.0298p      6.0300p     -6.0300p      6.0300p  
  440.00000m     -6.0298p      6.0300p     -6.0300p      6.0300p  
  450.00000m     -6.0298p      6.0300p     -6.0300p      6.0300p  
  460.00000m     -6.0298p      6.0300p     -6.0300p      6.0300p  
  470.00000m     -6.0298p      6.0300p     -6.0300p      6.0300p  
  480.00000m     -6.0298p      6.0300p     -6.0300p      6.0300p  
  490.00000m     -6.0298p      6.0300p     -6.0300p      6.0300p  
  500.00000m     -6.0298p      6.0300p     -6.0300p      6.0300p  
  510.00000m     -6.0298p      6.0300p     -6.0300p      6.0300p  
  520.00000m     -6.0298p      6.0300p     -6.0300p      6.0300p  
  530.00000m     -6.0298p      6.0300p     -6.0300p      6.0300p  
  540.00000m     -6.0298p      6.0300p     -6.0300p      6.0300p  
  550.00000m     -6.0298p      6.0300p     -6.0300p      6.0300p  
  560.00000m     -6.0298p      6.0300p     -6.0300p      6.0300p  
  570.00000m     -6.0298p      6.0300p     -6.0300p      6.0300p  
  580.00000m     -6.0298p      6.0300p     -6.0300p      6.0300p  
  590.00000m     -6.0298p      6.0300p     -6.0300p      6.0300p  
  600.00000m     -6.0298p      6.0300p     -6.0300p      6.0300p  
  610.00000m     -6.0298p      6.0300p     -6.0300p      6.0300p  
  620.00000m     -6.0298p      6.0300p     -6.0300p      6.0300p  
  630.00000m     -6.0298p      6.0300p     -6.0300p      6.0300p  
  640.00000m     -6.0298p      6.0300p     -6.0300p      6.0300p  
  650.00000m     -6.0298p      6.0300p     -6.0300p      6.0300p  
  660.00000m     -6.0298p      6.0300p     -6.0300p      6.0300p  
  670.00000m     -6.0298p      6.0300p     -6.0300p      6.0300p  
  680.00000m     -6.0298p      6.0300p     -6.0300p      6.0300p  
  690.00000m     -6.0298p      6.0300p     -6.0300p      6.0300p  
  700.00000m     -6.0298p      6.0300p     -6.0300p      6.0300p  
  710.00000m     -6.0297p      6.0300p     -6.0300p      6.0300p  
  720.00000m     -6.0297p      6.0300p     -6.0300p      6.0300p  
  730.00000m     -6.0297p      6.0300p     -6.0300p      6.0300p  
  740.00000m     -6.0297p      6.0300p     -6.0300p      6.0300p  
  750.00000m     -6.0297p      6.0300p     -6.0300p      6.0300p  
  760.00000m     -6.0297p      6.0300p     -6.0300p      6.0300p  
  770.00000m     -6.0297p      6.0300p     -6.0300p      6.0300p  
  780.00000m     -6.0297p      6.0300p     -6.0300p      6.0300p  
  790.00000m     -6.0297p      6.0300p     -6.0300p      6.0300p  
  800.00000m     -6.0297p      6.0300p     -6.0300p      6.0300p  
  810.00000m     -6.0297p      6.0300p     -6.0300p      6.0300p  
  820.00000m     -6.0297p      6.0300p     -6.0300p      6.0300p  
  830.00000m     -6.0297p      6.0300p     -6.0300p      6.0300p  
  840.00000m     -6.0297p    763.6722p     -6.0300p      6.0300p  
  850.00000m     -2.2685n      3.0380n     -6.0300p      6.0300p  
  860.00000m     -6.0494n      6.8311n     -6.0300p      6.0300p  
  870.00000m    -11.3508n     12.1450n     -6.0300p      6.0300p  
  880.00000m    -18.1747n     18.9819n     -6.0300p      6.0300p  
  890.00000m    -26.5233n     27.3438n     -6.0300p      6.0300p  
  900.00000m    -36.3986n     37.2327n     -6.0300p      6.0300p  
  910.00000m    -47.8026n     48.6508n     -6.0300p      6.0300p  
  920.00000m    -60.7374n     61.6002n     -6.0300p      6.0300p  
  930.00000m    -75.2051n     76.0828n     -6.0300p      6.0300p  
  940.00000m    -91.2076n     92.1007n     -6.0300p      6.0300p  
  950.00000m   -108.7469n    109.6561n     -6.0300p      6.0300p  
  960.00000m   -127.8252n    128.7508n     -6.0300p      6.0300p  
  970.00000m   -148.4444n    149.3871n     -6.0300p      6.0300p  
  980.00000m   -170.6066n    171.5669n     -6.0300p      6.0300p  
  990.00000m   -194.3137n    195.2922n     -6.0300p      6.0300p  
    1.00000    -219.5677n    220.5651n     -6.0300p      6.0300p  
    1.01000    -246.3707n    247.3877n     -6.0300p      6.0300p  
    1.02000    -274.7246n    275.7619n     -6.0300p      6.0300p  
    1.03000    -304.6313n    305.6897n     -6.0300p      6.0300p  
    1.04000    -336.0930n    337.1732n     -6.0300p      6.0300p  
    1.05000    -369.1114n    370.2144n     -6.0300p      6.0300p  
    1.06000    -403.6885n    404.8152n     -6.0300p      6.0300p  
    1.07000    -439.8264n    440.9777n     -6.0300p      6.0300p  
    1.08000    -477.5268n    478.7038n     -6.0300p      6.0300p  
    1.09000    -516.7918n    517.9956n     -6.0300p      6.0300p  
    1.10000    -557.6232n    558.8550n     -6.0300p      6.0300p  
    1.11000    -600.0229n    601.2839n     -6.0300p      6.0300p  
    1.12000    -643.9928n    645.2844n     -6.0300p      6.0300p  
    1.13000    -689.5347n    690.8584n     -6.0300p      6.0300p  
    1.14000    -736.6505n    738.0078n     -6.0300p      6.0300p  
    1.15000    -785.3419n    786.7345n     -6.0300p      6.0300p  
    1.16000    -835.6109n    837.0406n     -6.0300p      6.0300p  
    1.17000    -887.4591n    888.9279n     -6.0300p      6.0300p  
    1.18000    -940.8883n    942.3983n     -6.0300p      6.0300p  
    1.19000    -995.9002n    997.4537n     -6.0300p      6.0300p  
    1.20000      -1.0525u      1.0541u     -6.0300p      6.0300p  
    1.21000      -1.1107u      1.1123u     -6.0300p      6.0300p  
    1.22000      -1.1704u      1.1721u     -6.0300p      6.0300p  
    1.23000      -1.2318u      1.2336u     -6.0300p      6.0300p  
    1.24000      -1.2948u      1.2966u     -6.0300p      6.0300p  
    1.25000      -1.3593u      1.3612u     -6.0300p      6.0300p  
    1.26000      -1.4254u      1.4274u     -6.0300p      6.0300p  
    1.27000      -1.4932u      1.4952u     -6.0300p      6.0300p  
    1.28000      -1.5625u      1.5646u     -6.0300p      6.0300p  
    1.29000      -1.6334u      1.6356u     -6.0300p      6.0300p  
    1.30000      -1.7059u      1.7082u     -6.0300p      6.0300p  
    1.31000      -1.7801u      1.7824u     -6.0300p      6.0300p  
    1.32000      -1.8558u      1.8582u     -6.0300p      6.0300p  
    1.33000      -1.9331u      1.9357u     -6.0300p      6.0300p  
    1.34000      -2.0120u      2.0147u     -6.0300p      6.0300p  
    1.35000      -2.0925u      2.0954u     -6.0300p      6.0300p  
    1.36000      -2.1747u      2.1777u     -6.0300p      6.0300p  
    1.37000      -2.2584u      2.2616u     -6.0300p      6.0300p  
    1.38000      -2.3437u      2.3471u     -6.0300p      6.0300p  
    1.39000      -2.4306u      2.4342u     -6.0300p      6.0300p  
    1.40000      -2.5191u      2.5229u     -6.0300p      6.0300p  
    1.41000      -2.6092u      2.6133u     -6.0300p      6.0300p  
    1.42000      -2.7008u      2.7053u     -6.0300p      6.0300p  
    1.43000      -2.7941u      2.7989u     -6.0300p      6.0300p  
    1.44000      -2.8888u      2.8941u     -6.0300p      6.0300p  
    1.45000      -2.9851u      2.9910u     -6.0300p      6.0300p  
    1.46000      -3.0829u      3.0895u     -6.0300p      6.0300p  
    1.47000      -3.1821u      3.1895u     -6.0300p      6.0300p  
    1.48000      -3.2827u      3.2913u     -6.0300p      6.0300p  
    1.49000      -3.3844u      3.3946u     -6.0300p      6.0300p  
    1.50000      -3.4871u      3.4995u     -6.0300p      6.0299p  
    1.51000      -3.5901u      3.6060u     -6.0300p      6.0299p  
    1.52000      -3.6919u      3.7141u     -6.0300p      6.0299p  
    1.53000      -3.8212u      3.8235u     -6.0300p      6.0300p  
    1.54000      -3.8806u      3.8806u     -6.9429u      6.9990u  
    1.55000      -3.8235u      3.8234u     -6.0297p      6.0300p  
    1.56000      -3.7140u      3.7140u     -6.0300p      6.0300p  
    1.57000      -3.6060u      3.6054u     -6.0300p      6.0300p  
    1.58000      -3.4995u      3.4993u     -6.0300p      6.0300p  
    1.59000      -3.3946u      3.3945u     -6.0300p      6.0300p  
    1.60000      -3.2912u      3.2912u     -6.0300p      6.0300p  
    1.61000      -3.1895u      3.1895u     -6.0300p      6.0300p  
    1.62000      -3.0894u      3.0894u     -6.0300p      6.0300p  
    1.63000      -2.9910u      2.9910u     -6.0300p      6.0300p  
    1.64000      -2.8941u      2.8941u     -6.0300p      6.0300p  
    1.65000      -2.7989u      2.7989u     -6.0300p      6.0300p  
    1.66000      -2.7053u      2.7053u     -6.0300p      6.0300p  
    1.67000      -2.6133u      2.6133u     -6.0300p      6.0300p  
    1.68000      -2.5229u      2.5229u     -6.0300p      6.0300p  
    1.69000      -2.4342u      2.4301u     -6.0300p      6.0300p  
    1.70000      -2.3471u      2.3432u     -6.0300p      6.0300p  
    1.71000      -2.2616u      2.2580u     -6.0300p      6.0300p  
    1.72000      -2.1777u      2.1743u     -6.0300p      6.0300p  
    1.73000      -2.0954u      2.0922u     -6.0300p      6.0300p  
    1.74000      -2.0147u      2.0117u     -6.0300p      6.0300p  
    1.75000      -1.9357u      1.9328u     -6.0300p      6.0300p  
    1.76000      -1.8582u      1.8555u     -6.0300p      6.0300p  
    1.77000      -1.7824u      1.7798u     -6.0300p      6.0300p  
    1.78000      -1.7082u      1.7057u     -6.0300p      6.0300p  
    1.79000      -1.6356u      1.6332u     -6.0300p      6.0300p  
    1.80000      -1.5646u      1.5623u     -6.0300p      6.0300p  
    1.81000      -1.4952u      1.4930u     -6.0300p      6.0300p  
    1.82000      -1.4274u      1.4253u     -6.0300p      6.0300p  
    1.83000      -1.3612u      1.3592u     -6.0300p      6.0300p  
    1.84000      -1.2966u      1.2946u     -6.0300p      6.0300p  
    1.85000      -1.2336u      1.2317u     -6.0300p      6.0300p  
    1.86000      -1.1721u      1.1703u     -6.0300p      6.0300p  
    1.87000      -1.1123u      1.1106u     -6.0300p      6.0300p  
    1.88000      -1.0541u      1.0524u     -6.0300p      6.0300p  
    1.89000    -997.4537n    995.8061n     -6.0300p      6.0300p  
    1.90000    -942.3983n    940.7994n     -6.0300p      6.0300p  
    1.91000    -888.9279n    887.3750n     -6.0300p      6.0300p  
    1.92000    -837.0406n    835.5313n     -6.0300p      6.0300p  
    1.93000    -786.7346n    785.2664n     -6.0300p      6.0300p  
    1.94000    -738.0078n    736.5787n     -6.0300p      6.0300p  
    1.95000    -690.8584n    689.4664n     -6.0300p      6.0300p  
    1.96000    -645.2844n    643.9278n     -6.0300p      6.0300p  
    1.97000    -601.2839n    599.9609n     -6.0300p      6.0300p  
    1.98000    -558.8550n    557.5640n     -6.0300p      6.0300p  
    1.99000    -517.9956n    516.7352n     -6.0300p      6.0300p  
    2.00000    -478.7038n    477.4727n     -6.0300p      6.0300p  
    2.01000    -440.9777n    439.7746n     -6.0300p      6.0300p  
    2.02000    -404.8152n    403.6389n     -6.0300p      6.0300p  
    2.03000    -370.2144n    369.0637n     -6.0300p      6.0300p  
    2.04000    -337.1732n    336.0472n     -6.0300p      6.0300p  
    2.05000    -305.6897n    304.5874n     -6.0300p      6.0300p  
    2.06000    -275.7619n    274.6823n     -6.0300p      6.0300p  
    2.07000    -247.3877n    246.3300n     -6.0300p      6.0300p  
    2.08000    -220.5651n    219.5285n     -6.0300p      6.0300p  
    2.09000    -195.2922n    194.2759n     -6.0300p      6.0300p  
    2.10000    -171.5669n    170.5702n     -6.0300p      6.0300p  
    2.11000    -149.3871n    148.4093n     -6.0300p      6.0300p  
    2.12000    -128.7508n    127.7912n     -6.0300p      6.0300p  
    2.13000    -109.6561n    108.7141n     -6.0300p      6.0300p  
    2.14000     -92.1007n     91.1758n     -6.0300p      6.0300p  
    2.15000     -76.0828n     75.1743n     -6.0300p      6.0300p  
    2.16000     -61.6002n     60.7077n     -6.0300p      6.0300p  
    2.17000     -48.6508n     47.7738n     -6.0300p      6.0300p  
    2.18000     -37.2327n     36.3707n     -6.0300p      6.0300p  
    2.19000     -27.3438n     26.4962n     -6.0300p      6.0300p  
    2.20000     -18.9819n     18.1485n     -6.0300p      6.0300p  
    2.21000     -12.1450n     11.3253n     -6.0300p      6.0300p  
    2.22000      -6.8311n      6.0246n     -6.0300p      6.0300p  
    2.23000      -3.0380n      2.2444n     -6.0300p      6.0300p  
    2.24000    -763.6722p    -17.3485p     -6.0300p      6.0300p  
    2.25000      -6.0300p   -762.8116p     -6.0300p      6.0300p  
    2.26000      -6.0300p      6.0299p     -6.0300p      6.0300p  
    2.27000      -6.0300p      6.0297p     -6.0300p      6.0300p  
    2.28000      -6.0300p      6.0297p     -6.0300p      6.0300p  
    2.29000      -6.0300p      6.0297p     -6.0300p      6.0300p  
    2.30000      -6.0300p      6.0297p     -6.0300p      6.0300p  
    2.31000      -6.0300p      6.0297p     -6.0300p      6.0300p  
    2.32000      -6.0300p      6.0297p     -6.0300p      6.0300p  
    2.33000      -6.0300p      6.0297p     -6.0300p      6.0300p  
    2.34000      -6.0300p      6.0297p     -6.0300p      6.0300p  
    2.35000      -6.0300p      6.0297p     -6.0300p      6.0300p  
    2.36000      -6.0300p      6.0297p     -6.0300p      6.0300p  
    2.37000      -6.0300p      6.0297p     -6.0300p      6.0300p  
    2.38000      -6.0300p      6.0297p     -6.0300p      6.0300p  
    2.39000      -6.0300p      6.0297p     -6.0300p      6.0300p  
    2.40000      -6.0300p      6.0298p     -6.0300p      6.0300p  
    2.41000      -6.0300p      6.0298p     -6.0300p      6.0300p  
    2.42000      -6.0300p      6.0298p     -6.0300p      6.0300p  
    2.43000      -6.0300p      6.0298p     -6.0300p      6.0300p  
    2.44000      -6.0300p      6.0298p     -6.0300p      6.0300p  
    2.45000      -6.0300p      6.0298p     -6.0300p      6.0300p  
    2.46000      -6.0300p      6.0298p     -6.0300p      6.0300p  
    2.47000      -6.0300p      6.0298p     -6.0300p      6.0300p  
    2.48000      -6.0300p      6.0298p     -6.0300p      6.0300p  
    2.49000      -6.0300p      6.0298p     -6.0300p      6.0300p  
    2.50000      -6.0300p      6.0298p     -6.0300p      6.0300p  
    2.51000      -6.0300p      6.0298p     -6.0300p      6.0300p  
    2.52000      -6.0300p      6.0298p     -6.0300p      6.0300p  
    2.53000      -6.0300p      6.0298p     -6.0300p      6.0300p  
    2.54000      -6.0300p      6.0298p     -6.0300p      6.0300p  
    2.55000      -6.0300p      6.0298p     -6.0300p      6.0300p  
    2.56000      -6.0300p      6.0298p     -6.0300p      6.0300p  
    2.57000      -6.0300p      6.0298p     -6.0300p      6.0300p  
    2.58000      -6.0300p      6.0298p     -6.0300p      6.0300p  
    2.59000      -6.0300p      6.0298p     -6.0300p      6.0300p  
    2.60000      -6.0300p      6.0298p     -6.0300p      6.0300p  
    2.61000      -6.0300p      6.0298p     -6.0300p      6.0300p  
    2.62000      -6.0300p      6.0298p     -6.0300p      6.0300p  
    2.63000      -6.0300p      6.0298p     -6.0300p      6.0300p  
    2.64000      -6.0300p      6.0298p     -6.0300p      6.0300p  
    2.65000      -6.0300p      6.0298p     -6.0300p      6.0300p  
    2.66000      -6.0300p      6.0298p     -6.0300p      6.0300p  
    2.67000      -6.0300p      6.0298p     -6.0300p      6.0300p  
    2.68000      -6.0300p      6.0298p     -6.0300p      6.0300p  
    2.69000      -6.0300p      6.0298p     -6.0300p      6.0300p  
    2.70000      -6.0300p      6.0298p     -6.0300p      6.0300p  
    2.71000      -6.0300p      6.0298p     -6.0300p      6.0300p  
    2.72000      -6.0300p      6.0298p     -6.0300p      6.0300p  
    2.73000      -6.0300p      6.0298p     -6.0300p      6.0300p  
    2.74000      -6.0300p      6.0298p     -6.0300p      6.0300p  
    2.75000      -6.0300p      6.0298p     -6.0300p      6.0300p  
    2.76000      -6.0300p      6.0298p     -6.0300p      6.0300p  
    2.77000      -6.0300p      6.0298p     -6.0300p      6.0300p  
    2.78000      -6.0300p      6.0298p     -6.0300p      6.0300p  
    2.79000      -6.0300p      6.0298p     -6.0300p      6.0300p  
    2.80000      -6.0300p      6.0298p     -6.0300p      6.0300p  
    2.81000      -6.0300p      6.0298p     -6.0300p      6.0300p  
    2.82000      -6.0300p      6.0298p     -6.0300p      6.0300p  
    2.83000      -6.0300p      6.0298p     -6.0300p      6.0300p  
    2.84000      -6.0300p      6.0298p     -6.0300p      6.0300p  
    2.85000      -6.0300p      6.0299p     -6.0300p      6.0300p  
    2.86000      -6.0300p      6.0299p     -6.0300p      6.0300p  
    2.87000      -6.0300p      6.0299p     -6.0300p      6.0300p  
    2.88000      -6.0300p      6.0299p     -6.0300p      6.0300p  
    2.89000      -6.0300p      6.0299p     -6.0300p      6.0300p  
    2.90000      -6.0300p      6.0299p     -6.0300p      6.0300p  
    2.91000      -6.0300p      6.0299p     -6.0300p      6.0300p  
    2.92000      -6.0300p      6.0299p     -6.0300p      6.0300p  
    2.93000      -6.0300p      6.0299p     -6.0300p      6.0300p  
    2.94000      -6.0300p      6.0299p     -6.0300p      6.0300p  
    2.95000      -6.0300p      6.0299p     -6.0300p      6.0300p  
    2.96000      -6.0300p      6.0299p     -6.0300p      6.0300p  
    2.97000      -6.0300p      6.0299p     -6.0300p      6.0300p  
    2.98000      -6.0300p      6.0299p     -6.0300p      6.0300p  
    2.99000      -6.0300p      6.0299p     -6.0300p      6.0300p  
    3.00000      -6.0300p      6.0299p     -6.0300p      6.0300p  
y
x

        volt    current      current      current    
                    rin          r2           r3     
    0.            0.           0.           0.       
   10.00000m      0.           0.           0.       
   20.00000m      0.           0.           0.       
   30.00000m      0.           0.           0.       
   40.00000m      0.         1.323e-25      0.       
   50.00000m   -6.939e-19      0.        -9.453e-26  
   60.00000m      0.           0.           0.       
   70.00000m      0.           0.           0.       
   80.00000m      0.           0.           0.       
   90.00000m      1.3878a      0.           0.       
  100.00000m     -1.3878a    1.323e-25      0.       
  110.00000m      0.           0.           0.       
  120.00000m      0.           0.           0.       
  130.00000m      0.           0.         9.453e-26  
  140.00000m      0.           0.           0.       
  150.00000m      0.           0.         9.453e-26  
  160.00000m      0.           0.           0.       
  170.00000m      0.           0.           0.       
  180.00000m      2.7756a      0.           0.       
  190.00000m     -2.7756a      0.           0.       
  200.00000m     -2.7756a      0.           0.       
  210.00000m      0.           0.           0.       
  220.00000m      0.           0.           0.       
  230.00000m      0.           0.           0.       
  240.00000m      0.           0.           0.       
  250.00000m      0.           0.           0.       
  260.00000m      0.           0.           0.       
  270.00000m      0.           0.         9.453e-26  
  280.00000m      0.           0.           0.       
  290.00000m      0.        -1.323e-25      0.       
  300.00000m      0.           0.           0.       
  310.00000m      0.           0.           0.       
  320.00000m      0.           0.           0.       
  330.00000m      0.         1.323e-25      0.       
  340.00000m      0.           0.           0.       
  350.00000m      0.         1.323e-25      0.       
  360.00000m      5.5511a      0.           0.       
  370.00000m      5.5511a      0.           0.       
  380.00000m     -5.5511a      0.         9.453e-26  
  390.00000m     -5.5511a      0.           0.       
  400.00000m     -5.5511a      0.           0.       
  410.00000m     -5.5511a      0.           0.       
  420.00000m      0.           0.           0.       
  430.00000m      0.           0.           0.       
  440.00000m      0.           0.           0.       
  450.00000m      0.        -1.323e-25      0.       
  460.00000m      0.         1.323e-25      0.       
  470.00000m      0.           0.           0.       
  480.00000m      0.        -1.323e-25      0.       
  490.00000m      0.        -1.323e-25      0.       
  500.00000m      0.           0.           0.       
  510.00000m      0.        -1.323e-25      0.       
  520.00000m      0.         1.323e-25      0.       
  530.00000m      0.        -1.323e-25      0.       
  540.00000m      0.           0.           0.       
  550.00000m      0.           0.           0.       
  560.00000m      0.           0.           0.       
  570.00000m      0.           0.           0.       
  580.00000m      0.           0.           0.       
  590.00000m      0.           0.           0.       
  600.00000m      0.           0.           0.       
  610.00000m      0.        -1.323e-25    9.453e-26  
  620.00000m      0.           0.         9.453e-26  
  630.00000m      0.           0.           0.       
  640.00000m      0.         1.323e-25      0.       
  650.00000m      0.         1.323e-25      0.       
  660.00000m      0.           0.           0.       
  670.00000m      0.           0.           0.       
  680.00000m      0.         1.323e-25      0.       
  690.00000m      0.           0.           0.       
  700.00000m      0.           0.           0.       
  710.00000m     11.1022a    1.323e-25      0.       
  720.00000m     11.1022a    1.323e-25      0.       
  730.00000m     11.1022a      0.           0.       
  740.00000m     11.1022a    1.323e-25      0.       
  750.00000m    -11.1022a   -1.323e-25      0.       
  760.00000m    -11.1022a      0.           0.       
  770.00000m    -11.1022a      0.           0.       
  780.00000m    -11.1022a    1.323e-25      0.       
  790.00000m    -11.1022a      0.           0.       
  800.00000m    -11.1022a      0.           0.       
  810.00000m    -11.1022a   -1.323e-25      0.       
  820.00000m    -11.1022a      0.           0.       
  830.00000m    -11.1022a      0.           0.       
  840.00000m      0.           0.           0.       
  850.00000m      0.           0.        -9.453e-26  
  860.00000m      0.           0.        -9.453e-26  
  870.00000m      0.        -1.323e-25      0.       
  880.00000m      0.           0.         9.453e-26  
  890.00000m      0.           0.           0.       
  900.00000m      0.           0.           0.       
  910.00000m      0.           0.           0.       
  920.00000m      0.         1.323e-25      0.       
  930.00000m      0.           0.           0.       
  940.00000m      0.           0.           0.       
  950.00000m      0.           0.           0.       
  960.00000m      0.           0.           0.       
  970.00000m      0.           0.           0.       
  980.00000m      0.           0.           0.       
  990.00000m      0.           0.           0.       
    1.00000       0.           0.           0.       
    1.01000       0.           0.           0.       
    1.02000       0.           0.           0.       
    1.03000       0.           0.           0.       
    1.04000       0.           0.           0.       
    1.05000       0.           0.           0.       
    1.06000       0.        -1.323e-25      0.       
    1.07000       0.           0.         9.453e-26  
    1.08000       0.           0.           0.       
    1.09000       0.           0.           0.       
    1.10000       0.           0.        -9.453e-26  
    1.11000       0.           0.           0.       
    1.12000       0.           0.           0.       
    1.13000       0.         1.323e-25      0.       
    1.14000       0.         1.323e-25      0.       
    1.15000       0.           0.           0.       
    1.16000       0.           0.           0.       
    1.17000       0.         1.323e-25      0.       
    1.18000       0.         1.323e-25      0.       
    1.19000       0.         1.323e-25   -9.453e-26  
    1.20000       0.         1.323e-25      0.       
    1.21000       0.           0.           0.       
    1.22000       0.           0.           0.       
    1.23000       0.         1.323e-25      0.       
    1.24000       0.           0.           0.       
    1.25000       0.        -1.323e-25      0.       
    1.26000       0.           0.           0.       
    1.27000       0.         1.323e-25   -9.453e-26  
    1.28000       0.           0.           0.       
    1.29000       0.           0.           0.       
    1.30000       0.        -1.323e-25    9.453e-26  
    1.31000       0.        -1.323e-25      0.       
    1.32000       0.           0.           0.       
    1.33000       0.           0.           0.       
    1.34000       0.        -1.323e-25      0.       
    1.35000       0.         1.323e-25      0.       
    1.36000       0.           0.           0.       
    1.37000       0.           0.           0.       
    1.38000       0.           0.           0.       
    1.39000       0.           0.           0.       
    1.40000       0.           0.           0.       
    1.41000      22.2045a      0.           0.       
    1.42000      22.2045a      0.           0.       
    1.43000      22.2045a      0.           0.       
    1.44000      22.2045a      0.           0.       
    1.45000      22.2045a      0.           0.       
    1.46000      22.2045a   -1.323e-25      0.       
    1.47000      22.2045a      0.           0.       
    1.48000      22.2045a      0.           0.       
    1.49000      22.2045a      0.           0.       
    1.50000     -22.2045a      0.           0.       
    1.51000     -22.2045a      0.           0.       
    1.52000     -22.2045a      0.           0.       
    1.53000     -22.2045a      0.           0.       
    1.54000     -22.2045a      0.           0.       
    1.55000     -22.2045a      0.           0.       
    1.56000     -22.2045a      0.           0.       
    1.57000     -22.2045a      0.           0.       
    1.58000     -22.2045a      0.           0.       
    1.59000     -22.2045a     17.7636a      0.       
    1.60000     -22.2045a      0.           0.       
    1.61000     -22.2045a      0.           0.       
    1.62000     -22.2045a     17.7636a      0.       
    1.63000     -22.2045a      0.           0.       
    1.64000     -22.2045a     17.7636a      0.       
    1.65000     -22.2045a     17.7636a      0.       
    1.66000     -22.2045a      0.           0.       
    1.67000       0.           0.         -12.6883a  
    1.68000       0.         -17.7636a      0.       
    1.69000       0.           0.           0.       
    1.70000       0.          17.7636a      0.       
    1.71000       0.         -17.7636a      0.       
    1.72000       0.           0.           0.       
    1.73000       0.           0.           0.       
    1.74000       0.           0.           0.       
    1.75000       0.          17.7636a      0.       
    1.76000       0.           0.           0.       
    1.77000       0.         -17.7636a      0.       
    1.78000       0.           0.           0.       
    1.79000       0.           0.           0.       
    1.80000       0.           0.           0.       
    1.81000       0.           0.           0.       
    1.82000       0.           0.           0.       
    1.83000       0.           0.           0.       
    1.84000       0.           0.           0.       
    1.85000       0.           0.          12.6883a  
    1.86000       0.         -17.7636a      0.       
    1.87000       0.          17.7636a      0.       
    1.88000       0.          17.7636a      0.       
    1.89000       0.           0.           0.       
    1.90000       0.         -17.7636a      0.       
    1.91000       0.           0.           0.       
    1.92000       0.           0.         -12.6883a  
    1.93000       0.           0.           0.       
    1.94000       0.           0.           0.       
    1.95000       0.          17.7636a      0.       
    1.96000       0.           0.           0.       
    1.97000       0.           0.          12.6883a  
    1.98000       0.           0.           0.       
    1.99000       0.          17.7636a      0.       
    2.00000       0.         -17.7636a      0.       
    2.01000       0.           0.           0.       
    2.02000       0.           0.           0.       
    2.03000       0.           0.           0.       
    2.04000       0.           0.           0.       
    2.05000       0.           0.           0.       
    2.06000       0.           0.           0.       
    2.07000       0.          17.7636a      0.       
    2.08000       0.           0.           0.       
    2.09000       0.           0.           0.       
    2.10000       0.           0.           0.       
    2.11000       0.           0.           0.       
    2.12000       0.           0.           0.       
    2.13000       0.          17.7636a      0.       
    2.14000       0.           0.           0.       
    2.15000       0.         -17.7636a      0.       
    2.16000       0.         -17.7636a      0.       
    2.17000       0.         -17.7636a      0.       
    2.18000       0.         -17.7636a      0.       
    2.19000       0.           0.           0.       
    2.20000       0.           0.           0.       
    2.21000       0.           0.           0.       
    2.22000       0.           0.           0.       
    2.23000       0.         -17.7636a      0.       
    2.24000       0.         -17.7636a      0.       
    2.25000       0.           0.          12.6883a  
    2.26000       0.         -17.7636a      0.       
    2.27000       0.           0.          12.6883a  
    2.28000       0.         -17.7636a      0.       
    2.29000       0.           0.           0.       
    2.30000       0.           0.           0.       
    2.31000       0.          17.7636a      0.       
    2.32000       0.           0.           0.       
    2.33000       0.           0.           0.       
    2.34000       0.           0.           0.       
    2.35000       0.           0.           0.       
    2.36000       0.           0.           0.       
    2.37000       0.           0.           0.       
    2.38000       0.           0.           0.       
    2.39000       0.          17.7636a      0.       
    2.40000       0.           0.           0.       
    2.41000       0.           0.         -12.6883a  
    2.42000       0.          17.7636a      0.       
    2.43000       0.           0.           0.       
    2.44000       0.           0.           0.       
    2.45000       0.           0.           0.       
    2.46000       0.         -17.7636a      0.       
    2.47000       0.          17.7636a      0.       
    2.48000       0.           0.           0.       
    2.49000       0.           0.           0.       
    2.50000       0.           0.           0.       
    2.51000       0.           0.           0.       
    2.52000       0.         -17.7636a      0.       
    2.53000       0.          17.7636a      0.       
    2.54000       0.           0.           0.       
    2.55000       0.          17.7636a      0.       
    2.56000       0.         -17.7636a      0.       
    2.57000       0.         -17.7636a      0.       
    2.58000       0.           0.           0.       
    2.59000       0.           0.           0.       
    2.60000       0.          17.7636a      0.       
    2.61000       0.           0.           0.       
    2.62000       0.           0.           0.       
    2.63000       0.           0.           0.       
    2.64000       0.           0.           0.       
    2.65000       0.           0.           0.       
    2.66000       0.           0.           0.       
    2.67000       0.         -17.7636a      0.       
    2.68000       0.           0.           0.       
    2.69000       0.          17.7636a      0.       
    2.70000       0.           0.         -12.6883a  
    2.71000       0.           0.           0.       
    2.72000       0.         -17.7636a      0.       
    2.73000       0.          17.7636a      0.       
    2.74000       0.           0.           0.       
    2.75000       0.           0.           0.       
    2.76000       0.           0.          12.6883a  
    2.77000       0.           0.           0.       
    2.78000       0.           0.           0.       
    2.79000       0.           0.           0.       
    2.80000       0.           0.           0.       
    2.81000       0.         -17.7636a      0.       
    2.82000      44.4089a      0.           0.       
    2.83000       0.         -17.7636a      0.       
    2.84000      44.4089a      0.           0.       
    2.85000       0.           0.           0.       
    2.86000      44.4089a    -17.7636a      0.       
    2.87000       0.         -17.7636a      0.       
    2.88000      44.4089a      0.          12.6883a  
    2.89000       0.           0.           0.       
    2.90000      44.4089a     17.7636a      0.       
    2.91000       0.           0.           0.       
    2.92000      44.4089a     17.7636a      0.       
    2.93000       0.          17.7636a      0.       
    2.94000      44.4089a      0.           0.       
    2.95000       0.         -17.7636a      0.       
    2.96000      44.4089a    -17.7636a      0.       
    2.97000       0.         -17.7636a     12.6883a  
    2.98000      44.4089a      0.           0.       
    2.99000       0.           0.           0.       
    3.00000     -44.4089a      0.           0.       
y
1****** HSPICE -- D-2010.03-SP1 32-BIT (May 26 2010) winnt ******               
 ******  
 * non-inverting buffer

  ******  operating point information tnom=  25.000 temp=  25.000 *****
 ***** operating point status is all       simulation time is     0.     
    node    =voltage      node    =voltage      node    =voltage

 +0:101     =   1.5000  0:102     =   1.5000  0:103     =   3.0000 
 +0:104     =  19.7865n 0:107     =   2.9099  0:115     =  19.7865n
 +0:116     =  19.7865n 0:117     =  19.7865n 0:118     =  19.7865n


 ****  voltage sources

 subckt                        
 element  0:vdd      0:vin     
  volts      3.0000     1.5000 
  current   -3.4995u    0.     
  power     10.4984u    0.     

     total voltage source power dissipation=   10.4984u       watts



 **** resistors

 subckt                                   
 element  0:rin      0:r2       0:r3      
  r value   10.0000    25.0000    35.0000 
  v drop  -222.0446a    0.       3.309e-24
  current  -22.2045a    0.       9.453e-26
  power      0.         0.         0.     



 **** mosfets


 subckt                                              
 element  0:m1       0:m2       0:m3       0:m4      
 model    0:modp     0:modn     0:modp     0:modn    
 region       Linear   Saturati     Cutoff     Linear
  id        -3.4995u    3.4995u    0.         6.0300p
  ibs        0.         0.         0.         0.     
  ibd      900.8878a  -29.0991f   30.0000f -1.979e-22
  vgs       -1.5000     1.5000   -90.0888m    2.9099 
  vds      -90.0888m    2.9099    -3.0000    19.7865n
  vbs        0.         0.         0.         0.     
  vth     -750.0000m  830.0000m -750.0000m  830.0000m
  vdsat   -157.9643m  140.4070m    0.       472.9726m
  vod     -750.0000m  670.0000m  659.9112m    2.0799 
  beta      73.3297u   75.4762u  257.1429u  146.5222u
  gam eff    6.0732     6.0732     6.0732     6.0732 
  gm         6.6062u   10.5974u    0.         2.8992p
  gds       23.0339u   35.2940n    0.       304.7531u
  gmb       25.3935u   39.9716u    0.        11.5613p
  cdtot    150.5772a  4.074e-19  7.413e-20  105.0005a
  cgtot    321.1143a   72.8410a  528.0529a  211.6001a
  cstot    163.9956a   70.0004a   12.3546a  105.0005a
  cbtot      6.5415a    2.4333a  515.6241a    1.5991a
  cgs      163.9956a   70.0004a   12.3546a  105.0005a
  cgd      150.5772a  4.074e-19  7.413e-20  105.0005a




          ***** job concluded
1****** HSPICE -- D-2010.03-SP1 32-BIT (May 26 2010) winnt ******               
 ******  
 * non-inverting buffer

  ******  job statistics summary tnom=  25.000 temp=  25.000 *****

  ******  HSPICE Threads Information  ******

  Command Line Threads Count                  :     1
  Available CPU Count                         :    12
  Actual Model Evaluation(Load) Threads Count :     1
  Actual Solver Threads Count                 :     1


  ******  Circuit Statistics  ******
  # nodes       =      10 # elements   =      14
  # resistors   =       3 # capacitors =       3 # inductors   =       2
  # mutual_inds =       0 # vccs       =       0 # vcvs        =       0
  # cccs        =       0 # ccvs       =       0 # volt_srcs   =       2
  # curr_srcs   =       0 # diodes     =       0 # bjts        =       0
  # jfets       =       0 # mosfets    =       4 # U elements  =       0
  # T elements  =       0 # W elements =       0 # B elements  =       0
  # S elements  =       0 # P elements =       0 # va device   =       0


  ******  Runtime Statistics (seconds)  ******

  analysis           time    # points   tot. iter  conv.iter
  op point           0.02           1           8
  dc sweep           0.02         301         635
  readin             0.16
  errchk             0.03
  setup              0.05
  output             0.00


           total memory used          168  kbytes
           total cpu time            0.36 seconds
           total elapsed time        0.63 seconds
           job started at     16:27:42 05/07/2011
           job ended   at     16:27:42 05/07/2011


  lic: Release hspice token(s) 
