***** HSPICE -- D-2010.03-SP1 32-BIT (May 26 2010) winnt ******
 Input File: d:\synopsys\hspice\trytry\dbmixer.sp
 lic:
 lic: FLEXlm: v8.5b
 lic: USER:   zrc                  HOSTNAME: LAPTOP-O4SR7NUK
 lic: HOSTID: "005056c00001 00ffd46088fe a87eea1f533c 005056c00008 a87eea1f5338
 lic: Using FLEXlm license file:
 lic: C:\flexlm\hspice.dat
 lic: Checkout 1 hspice
 lic: License/Maintenance for hspice will expire on 31-dec-2020/2007.9
 lic: NODE LOCKED license on hostid "005056c00001 00ffd46088fe a87eea1f533c 0050
 lic:
 init: begin read circuit files,  cpu clock=  2.80E-01
       option search   = D:\synopsys\Hspice_D-2010.03-SP1\PARTS\behave\
       option search   = D:\synopsys\Hspice_D-2010.03-SP1\PARTS\AD\
       option search   = D:\synopsys\Hspice_D-2010.03-SP1\PARTS\XILINX\
       option search   = D:\synopsys\Hspice_D-2010.03-SP1\PARTS\TLINE\
       option search   = D:\synopsys\Hspice_D-2010.03-SP1\PARTS\TI\
       option search   = D:\synopsys\Hspice_D-2010.03-SP1\PARTS\SIGNET\
       option search   = D:\synopsys\Hspice_D-2010.03-SP1\PARTS\PCI\
       option search   = D:\synopsys\Hspice_D-2010.03-SP1\PARTS\LIN_TECH\
       option search   = D:\synopsys\Hspice_D-2010.03-SP1\PARTS\FET\
       option search   = D:\synopsys\Hspice_D-2010.03-SP1\PARTS\DIO\
       option search   = D:\synopsys\Hspice_D-2010.03-SP1\PARTS\COMLINE\
       option search   = D:\synopsys\Hspice_D-2010.03-SP1\PARTS\BURR_BRN\
       option search   = D:\synopsys\Hspice_D-2010.03-SP1\PARTS\BJT\
       option search   = D:\synopsys\Hspice_D-2010.03-SP1\PARTS\behave\
       option search   = D:\synopsys\Hspice_D-2010.03-SP1\PARTS\AD\
       option post     =     2.00
       option runlvl
       option list
       option node
       option post
 init: end read circuit files,  cpu clock=  4.58E-01 memory=    149 kb
 init: begin check errors,  cpu clock=  4.58E-01
 init: end check errors,  cpu clock=  4.93E-01 memory=    149 kb
 init: begin setup matrix, pivot=     0 cpu clock=  4.93E-01
       establish matrix -- done,  cpu clock=  5.20E-01 memory=    155 kb
       re-order matrix -- done,  cpu clock=  5.35E-01 memory=    158 kb
 init: end setup matrix,  cpu clock=  5.49E-01 memory=    172 kb
 dcop: begin dcop,  cpu clock=  5.65E-01
 dcop: end dcop,  cpu clock=  5.79E-01 memory=    172 kb  tot_iter=       5
>info:         ***** hspice job concluded
 lic: Release hspice token(s)
