 ****** HSPICE -- D-2010.03-SP1 32-BIT (May 26 2010) winnt ******               
  Copyright (C) 2010 Synopsys, Inc. All Rights Reserved.                        
  Unpublished-rights reserved under US copyright laws.
  This program is protected by law and is subject to the 
  terms and conditions of the license agreement from Synopsys.
  Use of this program is your acceptance to be bound by the 
  license agreement. HSPICE is the trademark of Synopsys, Inc.
  Input File: d:\synopsys\hspice\trytry\diftest.sp                              
  lic:  
  lic: FLEXlm: v8.5b 
  lic: USER:   zrc                  HOSTNAME: LAPTOP-O4SR7NUK 
  lic: HOSTID: "005056c00001 00ffd46088fe a87eea1f533c 005056c00008 a87eea1f5338
  
  lic: Using FLEXlm license file: 
  lic: C:\flexlm\hspice.dat 
  lic: Checkout 1 hspice 
  lic: License/Maintenance for hspice will expire on 31-dec-2020/2007.9 
  lic: NODE LOCKED license on hostid "005056c00001 00ffd46088fe a87eea1f533c 005
 0
  lic:   
 Init: read install configuration file: D:\synopsys\Hspice_D-2010.03-SP1\meta.cfg
 scientific notation:
 a=10**-18  f=10**-15  p=10**-12  n=10**-9  u=10**-6
 m=10**-3   k=10**3    x=10**6    g=10**9 


 circuit parameter definitions
  parameter          =  value 





 constants  - tnom         kt           vt           gapsi        ni
            298.15000    4.1163e-21    25.69184m     1.11562    1.2565e+16 
1****** HSPICE -- D-2010.03-SP1 32-BIT (May 26 2010) winnt ******               
 ******  
 * diftest

  ******  diode model parameters tnom=  25.000 temp=  25.000 *****
 ********************************************************
 *** common model parameters model name:   0:diode   ****
 ********************************************************

     names  values   units     names  values   units     names  values   units
     -----  ------   -----     -----  ------   -----     -----  ------   -----

   1*** dc breakdown parameters ***
       vb=   0.    volts        ibv=   1.00m amps   

   2*** parasitic resistance parameters ***
       rs=   0.    ohms   

   3*** capacitance parameters ***
       fc= 500.00m              fcs= 500.00m                m= 500.00m        
     mjsw= 330.00m               pb= 800.00m volts        php= 800.00m volts  
       tt=   0.    secs         cjo=   0.    f/area       cjp=   0.    f/pj   

   4*** temperature effect parameters ***
     tlev=   0.               tlevc=   0.                 tcv=   0.    v/deg k
      trs=   0.    /deg         cta=   0.    /deg         ctp=   0.    /deg   
      xti=   3.00            xtitun=   3.00               keg=   1.00         
       eg=   1.11  ev          gap1= 702.00u  ev/deg     gap2=   1.11k  deg   
     ttt1=   0.    /deg        ttt2=   0.    /deg2        tm1=   0.    /deg   
      tm2=   0.    /deg2        tpb=   0.    v/deg k     tphp=   0.    v/deg k
     tref=  25.00   deg c 

   5*** noise parameters ***
       kf=   0.                  af=   1.00         

   ***  level   1  model parameters  ***

    level=   1.00                is=  10.00u amps         jsw=   0.    amps   
        n=   1.00               nbv=   1.00                ik=   0.    amp    
     area=   1.00                pj=   0.                 ikr=   0.    amp    
    expli=   0.    amps      explir=   0.    amps        jtun=   0.    amps   
   jtunsw=   0.    amps        ntun=  30.00         
  
1****** HSPICE -- D-2010.03-SP1 32-BIT (May 26 2010) winnt ******               
 ******  
 * diftest

  ******  mos   model parameters tnom=  25.000 temp=  25.000 *****
 ***************************************************************************
 *** common model parameters  model name:   0:modn1    model type:nmos   ***
 ***************************************************************************
     names  values   units     names  values   units     names  values   units
     -----  ------   -----     -----  ------   -----     -----  ------   -----

   1*** geometry parameters ***
       ld=   0.    meters      lmlt=   1.00                wd=   0.    meters 
     wmlt=   1.00                xl=   0.    meters        xw=   0.    meters 
     lref=   0.    meters      wref=   0.    meters      lref=   0.    meters 
     wref=   0.    meters     xlref=   0.    meters     xwref=   0.    meters 
     lmin=   0.    meters      wmin=   0.    meters      lmax=   0.    meters 
     wmax=   0.    meters 

   2*** threshold voltage parameters ***
      vto= 500.00m volts        nss=   0.    1/cm**2      tpg=   1.00         
      phi= 465.69m volts      gamma=  10.00m v**0.5      bulk=  gnd           
    ngate=   0.    cm**3       nsub= 1.0e+14 1/cm**3   delvto=   0.    volts  

   3*** gate overlap capacitance parameters ***
     cgbo=   0.    f/meter     cgdo=   0.    f/meter     cgso=   0.    f/meter
     meto=   0.    meters 

   4*** gate capacitance parameters ***
    capop=   2.00               cf1=   0.    volts        cf2= 100.00m volts  
      cf3=   1.00  volts        cf4=  50.00               cf5= 666.67m        
      cf6= 500.00               xqc= 500.00m              tox=   5.76n meters 
      cox=   6.00m f/m**2 

   5*** diffusion parasitic parameters ***
      acm=   0.                  is=  10.00f amps          js=   0.    a/m**2 
      jsw=   0.    amp/m        nds=   1.00               cbd=   0.    farad  
      cbs=   0.    farad         cj=  33.54u f/m**2      cjsw=   0.    f/m    
   cjgate=   0.    f/m           mj= 500.00m             mjsw= 330.00m        
       pb= 800.00m volts        php= 800.00m volts         tt=   0.    secs   
     hdif=   0.    meters      ldif=   0.    meters        rd=   0.    ohms   
       rs=   0.    ohms         rsh=   0.    ohms/sq       fc=   0.           
    alpha=   0.                 vcr=   0.    volts      iirat=   0.           
      rdc=   0.    ohms         rsc=   0.    ohms           n=   1.00         
     vnds=  -1.00  volts  

   6*** temperature effect parameters ***
     tlev=   0.               tlevc=   0.                  eg=   1.11  ev     
     gap1= 702.00u ev/deg      gap2=   1.11k deg          xti=   0.           
      bex=  -1.50               tcv=   0.    v/deg k      trd=   0.    /deg   
      trs=   0.    /deg         cta=   0.    /deg         ctp=   0.    /deg   

   7*** noise parameters ***
       kf=   0.                  af=   1.00              nlev=   2.00         
   gdsnoi=   1.00         

   ***  level  1  model parameters  ***

   lambda=  50.00m /v            kp= 180.00u a/v**2 
 ***************************************************************************
 *** common model parameters  model name:   0:modn2    model type:nmos   ***
 ***************************************************************************
     names  values   units     names  values   units     names  values   units
     -----  ------   -----     -----  ------   -----     -----  ------   -----

   1*** geometry parameters ***
       ld=   0.    meters      lmlt=   1.00                wd=   0.    meters 
     wmlt=   1.00                xl=   0.    meters        xw=   0.    meters 
     lref=   0.    meters      wref=   0.    meters      lref=   0.    meters 
     wref=   0.    meters     xlref=   0.    meters     xwref=   0.    meters 
     lmin=   0.    meters      wmin=   0.    meters      lmax=   0.    meters 
     wmax=   0.    meters 

   2*** threshold voltage parameters ***
      vto= 300.00m volts        nss=   0.    1/cm**2      tpg=   1.00         
      phi= 465.69m volts      gamma=  10.00m v**0.5      bulk=  gnd           
    ngate=   0.    cm**3       nsub= 1.0e+14 1/cm**3   delvto=   0.    volts  

   3*** gate overlap capacitance parameters ***
     cgbo=   0.    f/meter     cgdo=   0.    f/meter     cgso=   0.    f/meter
     meto=   0.    meters 

   4*** gate capacitance parameters ***
    capop=   2.00               cf1=   0.    volts        cf2= 100.00m volts  
      cf3=   1.00  volts        cf4=  50.00               cf5= 666.67m        
      cf6= 500.00               xqc= 500.00m              tox=   5.76n meters 
      cox=   6.00m f/m**2 

   5*** diffusion parasitic parameters ***
      acm=   0.                  is=  10.00f amps          js=   0.    a/m**2 
      jsw=   0.    amp/m        nds=   1.00               cbd=   0.    farad  
      cbs=   0.    farad         cj=  33.54u f/m**2      cjsw=   0.    f/m    
   cjgate=   0.    f/m           mj= 500.00m             mjsw= 330.00m        
       pb= 800.00m volts        php= 800.00m volts         tt=   0.    secs   
     hdif=   0.    meters      ldif=   0.    meters        rd=   0.    ohms   
       rs=   0.    ohms         rsh=   0.    ohms/sq       fc=   0.           
    alpha=   0.                 vcr=   0.    volts      iirat=   0.           
      rdc=   0.    ohms         rsc=   0.    ohms           n=   1.00         
     vnds=  -1.00  volts  

   6*** temperature effect parameters ***
     tlev=   0.               tlevc=   0.                  eg=   1.11  ev     
     gap1= 702.00u ev/deg      gap2=   1.11k deg          xti=   0.           
      bex=  -1.50               tcv=   0.    v/deg k      trd=   0.    /deg   
      trs=   0.    /deg         cta=   0.    /deg         ctp=   0.    /deg   

   7*** noise parameters ***
       kf=   0.                  af=   1.00              nlev=   2.00         
   gdsnoi=   1.00         

   ***  level  1  model parameters  ***

   lambda=  50.00m /v            kp= 180.00u a/v**2 
 ***************************************************************************
 *** common model parameters  model name:   0:modp1    model type:pmos   ***
 ***************************************************************************
     names  values   units     names  values   units     names  values   units
     -----  ------   -----     -----  ------   -----     -----  ------   -----

   1*** geometry parameters ***
       ld=   0.    meters      lmlt=   1.00                wd=   0.    meters 
     wmlt=   1.00                xl=   0.    meters        xw=   0.    meters 
     lref=   0.    meters      wref=   0.    meters      lref=   0.    meters 
     wref=   0.    meters     xlref=   0.    meters     xwref=   0.    meters 
     lmin=   0.    meters      wmin=   0.    meters      lmax=   0.    meters 
     wmax=   0.    meters 

   2*** threshold voltage parameters ***
      vto=-500.00m volts        nss=   0.    1/cm**2      tpg=   1.00         
      phi= 465.69m volts      gamma=  10.00m v**0.5      bulk=  gnd           
    ngate=   0.    cm**3       nsub= 1.0e+14 1/cm**3   delvto=   0.    volts  

   3*** gate overlap capacitance parameters ***
     cgbo=   0.    f/meter     cgdo=   0.    f/meter     cgso=   0.    f/meter
     meto=   0.    meters 

   4*** gate capacitance parameters ***
    capop=   2.00               cf1=   0.    volts        cf2= 100.00m volts  
      cf3=   1.00  volts        cf4=  50.00               cf5= 666.67m        
      cf6= 500.00               xqc= 500.00m              tox=   5.76n meters 
      cox=   6.00m f/m**2 

   5*** diffusion parasitic parameters ***
      acm=   0.                  is=  10.00f amps          js=   0.    a/m**2 
      jsw=   0.    amp/m        nds=   1.00               cbd=   0.    farad  
      cbs=   0.    farad         cj=  33.54u f/m**2      cjsw=   0.    f/m    
   cjgate=   0.    f/m           mj= 500.00m             mjsw= 330.00m        
       pb= 800.00m volts        php= 800.00m volts         tt=   0.    secs   
     hdif=   0.    meters      ldif=   0.    meters        rd=   0.    ohms   
       rs=   0.    ohms         rsh=   0.    ohms/sq       fc=   0.           
    alpha=   0.                 vcr=   0.    volts      iirat=   0.           
      rdc=   0.    ohms         rsc=   0.    ohms           n=   1.00         
     vnds=  -1.00  volts  

   6*** temperature effect parameters ***
     tlev=   0.               tlevc=   0.                  eg=   1.11  ev     
     gap1= 702.00u ev/deg      gap2=   1.11k deg          xti=   0.           
      bex=  -1.50               tcv=   0.    v/deg k      trd=   0.    /deg   
      trs=   0.    /deg         cta=   0.    /deg         ctp=   0.    /deg   

   7*** noise parameters ***
       kf=   0.                  af=   1.00              nlev=   2.00         
   gdsnoi=   1.00         

   ***  level  1  model parameters  ***

   lambda=  50.00m /v            kp=  60.00u a/v**2 
 ***************************************************************************
 *** common model parameters  model name:   0:modp2    model type:pmos   ***
 ***************************************************************************
     names  values   units     names  values   units     names  values   units
     -----  ------   -----     -----  ------   -----     -----  ------   -----

   1*** geometry parameters ***
       ld=   0.    meters      lmlt=   1.00                wd=   0.    meters 
     wmlt=   1.00                xl=   0.    meters        xw=   0.    meters 
     lref=   0.    meters      wref=   0.    meters      lref=   0.    meters 
     wref=   0.    meters     xlref=   0.    meters     xwref=   0.    meters 
     lmin=   0.    meters      wmin=   0.    meters      lmax=   0.    meters 
     wmax=   0.    meters 

   2*** threshold voltage parameters ***
      vto=-300.00m volts        nss=   0.    1/cm**2      tpg=   1.00         
      phi= 465.69m volts      gamma=  10.00m v**0.5      bulk=  gnd           
    ngate=   0.    cm**3       nsub= 1.0e+14 1/cm**3   delvto=   0.    volts  

   3*** gate overlap capacitance parameters ***
     cgbo=   0.    f/meter     cgdo=   0.    f/meter     cgso=   0.    f/meter
     meto=   0.    meters 

   4*** gate capacitance parameters ***
    capop=   2.00               cf1=   0.    volts        cf2= 100.00m volts  
      cf3=   1.00  volts        cf4=  50.00               cf5= 666.67m        
      cf6= 500.00               xqc= 500.00m              tox=   5.76n meters 
      cox=   6.00m f/m**2 

   5*** diffusion parasitic parameters ***
      acm=   0.                  is=  10.00f amps          js=   0.    a/m**2 
      jsw=   0.    amp/m        nds=   1.00               cbd=   0.    farad  
      cbs=   0.    farad         cj=  33.54u f/m**2      cjsw=   0.    f/m    
   cjgate=   0.    f/m           mj= 500.00m             mjsw= 330.00m        
       pb= 800.00m volts        php= 800.00m volts         tt=   0.    secs   
     hdif=   0.    meters      ldif=   0.    meters        rd=   0.    ohms   
       rs=   0.    ohms         rsh=   0.    ohms/sq       fc=   0.           
    alpha=   0.                 vcr=   0.    volts      iirat=   0.           
      rdc=   0.    ohms         rsc=   0.    ohms           n=   1.00         
     vnds=  -1.00  volts  

   6*** temperature effect parameters ***
     tlev=   0.               tlevc=   0.                  eg=   1.11  ev     
     gap1= 702.00u ev/deg      gap2=   1.11k deg          xti=   0.           
      bex=  -1.50               tcv=   0.    v/deg k      trd=   0.    /deg   
      trs=   0.    /deg         cta=   0.    /deg         ctp=   0.    /deg   

   7*** noise parameters ***
       kf=   0.                  af=   1.00              nlev=   2.00         
   gdsnoi=   1.00         

   ***  level  1  model parameters  ***

   lambda=  50.00m /v            kp=  60.00u a/v**2 
1****** HSPICE -- D-2010.03-SP1 32-BIT (May 26 2010) winnt ******               
 ******  
 * diftest

  ******  circuit element summary tnom=  25.000 temp=  25.000 *****


 **** resistors

  
 
                                                     
 element name        0:rload1    0:rload2    0:rss   
 node1               0:104       0:105       0:121   
 node2               0:0         0:0         0:0     
 model                                               
 res eff           100.0000k     5.0000    100.0000k 
 tc1                 0.          0.          0.      
 tc2                 0.          0.          0.      
 scale               1.0000      1.0000      1.0000  
 m                   1.0000      1.0000      1.0000  
 ac                100.0000k     5.0000    100.0000k 
 temp               25.0000     25.0000     25.0000  
 l                   0.          0.          0.      
 w                   0.          0.          0.      
 cap                 0.          0.          0.      
 noise            1.000e+00   1.000e+00   1.000e+00  


 **** independent sources

     name         node1        node2      dc volt    ac mag    ac phase    type
  vdd  101               0                    2.0000     0.         0.      dc   
  vb  111               0                    1.0000     0.         0.      dc   
  vin  112               0                    1.5000     0.         0.      dc   
  iref  121               0                    1.0000m    0.         0.      dc   


 **** diodes

  
 
                                        
 name                0:d1       0:d2    
 node +              0:104      0:103   
 node -              0:102      0:105   
 model               0:diode    0:diode 
 res eff             0.         0.      
 cdsat eff          10.0000u   10.0000u 
 capd eff            0.         0.      
 poly cap                               
 metal cap                              
 ic                                     


 **** mosfets
  
 
                                                              
 element name        0:m1       0:m2       0:m3       0:m4    
 drain               0:102      0:103      0:102      0:103   
 gate                0:112      0:112      0:111      0:111   
 source              0:121      0:121      0:101      0:101   
 bulk                0:0        0:0        0:101      0:101   
 model               0:modn2    0:modn1    0:modp2    0:modp1 
 w eff              30.0000u   30.0000u   30.0000u   30.0000u 
 l eff             500.0000n  500.0000n  500.0000n  500.0000n 
 rd eff              0.         0.         0.         0.      
 rs eff              0.         0.         0.         0.      
 cdsat              10.0000f   10.0000f   10.0000f   10.0000f 
 cssat              10.0000f   10.0000f   10.0000f   10.0000f 
 capbd               0.         0.         0.         0.      
 capbs               0.         0.         0.         0.      
 temp               25.0000    25.0000    25.0000    25.0000  
 aic                                                          
  
 
1****** HSPICE -- D-2010.03-SP1 32-BIT (May 26 2010) winnt ******               
 ******  
 * diftest

  ******  element node table
                                                                                      
 0                rload1           rload2           rss              vdd              
                  vb               vin              iref             m1:b             
                  m2:b                                                                
 101              vdd              m3:s             m3:b             m4:s             
                  m4:b                                                                
 102              d1:-             m1:d             m3:d                              
 103              d2:+             m2:d             m4:d                              
 104              rload1           d1:+                                               
 105              rload2           d2:-                                               
 111              vb               m3:g             m4:g                              
 112              vin              m1:g             m2:g                              
 121              rss              iref             m1:s             m2:s             
 *****************************************************************
 ******  option summary
 ******
 runlvl  = 3         bypass  = 2         
1****** HSPICE -- D-2010.03-SP1 32-BIT (May 26 2010) winnt ******               
 ******  
 * diftest

  ******  temperature-adjusted values tnom=  25.000 temp=  27.000 *****

 constants  - temp         kt           vt           gapsi        ni
             300.1500     4.144e-21     25.8642m      1.1151     1.482e+16 

 *** resistors
    name        eff val        eff val(ac)



 **** diode model parameters at ckt temperature


   *** name:     0:diode             temp=   27.0000    

       is=   13.61u amp         pb=  796.83m volt       cjo=    0.    farad  
      jsw=    0.    amp        php=  796.83m volt       cjp=    0.    farad  
       bv=    0.    volt        tt=    0.    secs         m=  500.00m
       eg=    1.11  ev          rs=    0.    ohms  


 *** mosfet element parameters
 name           rd eff   rs eff   cdsat    cssat     vto      beta


        0:m1          0.       0.      13.63f   13.63f  297.52m   10.69m
        0:m2          0.       0.      13.63f   13.63f  497.52m   10.69m
        0:m3          0.       0.      13.63f   13.63f  296.99m    3.56m
        0:m4          0.       0.      13.63f   13.63f  496.99m    3.56m
 ******  
 * diftest

  ******  dc transfer curves tnom=  25.000 temp=  27.000 *****
x

        volt    current      current      current      current    
                    m1           m2           d1           d2     
    1.00000     955.4282u     45.4034u     -2.4338u    448.4743u  
    1.01000     955.1712u     45.2056u     -2.4027u    448.6422u  
    1.02000     955.3526u     45.0505u     -2.3738u    448.7985u  
    1.03000     955.5251u     44.9021u     -2.3461u    448.9481u  
    1.04000     955.6897u     44.7599u     -2.3196u    449.0914u  
    1.05000     955.8467u     44.6235u     -2.2942u    449.2288u  
    1.06000     955.9970u     44.4925u     -2.2698u    449.3608u  
    1.07000     956.1408u     44.3665u     -2.2463u    449.4877u  
    1.08000     956.2787u     44.2452u     -2.2237u    449.6097u  
    1.09000     956.4111u     44.1284u     -2.2020u    449.7273u  
    1.10000     956.5383u     44.0158u     -2.1810u    449.8406u  
    1.11000     956.6606u     43.9071u     -2.1608u    449.9500u  
    1.12000     956.7784u     43.8021u     -2.1413u    450.0556u  
    1.13000     956.8920u     43.7007u     -2.1224u    450.1576u  
    1.14000     957.0015u     43.6026u     -2.1042u    450.2562u  
    1.15000     957.1073u     43.5076u     -2.0866u    450.3517u  
    1.16000     957.2095u     43.4156u     -2.0695u    450.4441u  
    1.17000     957.3082u     43.3265u     -2.0529u    450.5337u  
    1.18000     957.4038u     43.2401u     -2.0369u    450.6205u  
    1.19000     957.4964u     43.1563u     -2.0213u    450.7048u  
    1.20000     957.5860u     43.0749u     -2.0062u    450.7865u  
    1.21000     957.6729u     42.9958u     -1.9915u    450.8659u  
    1.22000     957.7572u     42.9190u     -1.9773u    450.9431u  
    1.23000     957.8391u     42.8443u     -1.9634u    451.0181u  
    1.24000     957.9185u     42.7717u     -1.9499u    451.0910u  
    1.25000     957.9957u     42.7010u     -1.9368u    451.1619u  
    1.26000     958.0708u     42.6322u     -1.9241u    451.2310u  
    1.27000     958.1437u     42.5652u     -1.9116u    451.2983u  
    1.28000     958.2147u     42.4999u     -1.8995u    451.3638u  
    1.29000     958.2838u     42.4363u     -1.8877u    451.4276u  
    1.30000     958.3511u     42.3742u     -1.8762u    451.4899u  
    1.31000     958.4167u     42.3137u     -1.8650u    451.5506u  
    1.32000     958.4806u     42.2546u     -1.8541u    451.6099u  
    1.33000     958.5429u     42.1970u     -1.8434u    451.6677u  
    1.34000     958.6036u     42.1407u     -1.8330u    451.7241u  
    1.35000     958.6629u     42.0857u     -1.8228u    451.7793u  
    1.36000     958.7208u     42.0320u     -1.8129u    451.8331u  
    1.37000     958.7773u     41.9795u     -1.8031u    451.8858u  
    1.38000     958.8324u     41.9282u     -1.7936u    451.9372u  
    1.39000     958.8863u     41.8780u     -1.7843u    451.9875u  
    1.40000     958.9390u     41.8290u     -1.7753u    452.0367u  
    1.41000     958.9905u     41.7809u     -1.7664u    452.0849u  
    1.42000     959.0408u     41.7339u     -1.7577u    452.1320u  
    1.43000     959.0901u     41.6879u     -1.7492u    452.1781u  
    1.44000     959.1382u     41.6429u     -1.7408u    452.2233u  
    1.45000     959.1854u     41.5987u     -1.7327u    452.2675u  
    1.46000     959.2315u     41.5555u     -1.7247u    452.3108u  
    1.47000     959.2767u     41.5132u     -1.7168u    452.3533u  
    1.48000     959.3210u     41.4716u     -1.7092u    452.3949u  
    1.49000     959.3644u     41.4310u     -1.7016u    452.4357u  
    1.50000     959.4068u     41.3910u     -1.6943u    452.4756u  
    1.51000     959.4485u     41.3519u     -1.6870u    452.5148u  
    1.52000     959.4893u     41.3135u     -1.6799u    452.5533u  
    1.53000     959.5293u     41.2759u     -1.6730u    452.5910u  
    1.54000     959.5686u     41.2389u     -1.6661u    452.6281u  
    1.55000     959.6071u     41.2026u     -1.6594u    452.6644u  
    1.56000     959.6448u     41.1670u     -1.6528u    452.7001u  
    1.57000     959.6819u     41.1320u     -1.6464u    452.7351u  
    1.58000     959.7183u     41.0977u     -1.6400u    452.7695u  
    1.59000     959.7540u     41.0640u     -1.6338u    452.8033u  
    1.60000     959.7891u     41.0308u     -1.6277u    452.8365u  
    1.61000     959.8235u     40.9983u     -1.6217u    452.8691u  
    1.62000     959.8573u     40.9663u     -1.6158u    452.9011u  
    1.63000     959.8906u     40.9348u     -1.6100u    452.9326u  
    1.64000     959.9232u     40.9039u     -1.6042u    452.9636u  
    1.65000     959.9553u     40.8735u     -1.5986u    452.9940u  
    1.66000     959.9868u     40.8436u     -1.5931u    453.0239u  
    1.67000     960.0178u     40.8142u     -1.5877u    453.0534u  
    1.68000     960.0483u     40.7853u     -1.5823u    453.0823u  
    1.69000     960.0783u     40.7569u     -1.5771u    453.1108u  
    1.70000     960.1078u     40.7289u     -1.5719u    453.1388u  
    1.71000     960.1368u     40.7013u     -1.5668u    453.1664u  
    1.72000     960.1653u     40.6742u     -1.5618u    453.1935u  
    1.73000     960.1934u     40.6476u     -1.5569u    453.2202u  
    1.74000     960.2210u     40.6213u     -1.5521u    453.2465u  
    1.75000     960.2482u     40.5954u     -1.5473u    453.2724u  
    1.76000     960.2749u     40.5700u     -1.5426u    453.2979u  
    1.77000     960.3013u     40.5449u     -1.5380u    453.3230u  
    1.78000     960.3272u     40.5202u     -1.5334u    453.3477u  
    1.79000     960.3527u     40.4958u     -1.5289u    453.3721u  
    1.80000     960.3779u     40.4719u     -1.5245u    453.3961u  
    1.81000     960.4027u     40.4482u     -1.5201u    453.4197u  
    1.82000     960.4271u     40.4250u     -1.5158u    453.4430u  
    1.83000     960.4511u     40.4020u     -1.5116u    453.4660u  
    1.84000     960.4748u     40.3794u     -1.5074u    453.4886u  
    1.85000     960.4982u     40.3571u     -1.5033u    453.5109u  
    1.86000     960.5212u     40.3351u     -1.4993u    453.5329u  
    1.87000     960.5438u     40.3135u     -1.4953u    453.5546u  
    1.88000     960.5662u     40.2921u     -1.4913u    453.5760u  
    1.89000     960.5882u     40.2711u     -1.4874u    453.5970u  
    1.90000     960.6100u     40.2503u     -1.4836u    453.6178u  
    1.91000     960.6314u     40.2298u     -1.4798u    453.6383u  
    1.92000     960.6525u     40.2096u     -1.4761u    453.6586u  
    1.93000     960.6734u     40.1896u     -1.4724u    453.6785u  
    1.94000     960.6939u     40.1699u     -1.4688u    453.6982u  
    1.95000     960.7142u     40.1505u     -1.4652u    453.7177u  
    1.96000     960.7342u     40.1314u     -1.4617u    453.7368u  
    1.97000     960.7539u     40.1124u     -1.4582u    453.7557u  
    1.98000     960.7734u     40.0938u     -1.4548u    453.7744u  
    1.99000     960.7926u     40.0754u     -1.4514u    453.7929u  
    2.00000     960.8116u     40.0572u     -1.4480u    453.8111u  
y
1****** HSPICE -- D-2010.03-SP1 32-BIT (May 26 2010) winnt ******               
 ******  
 * diftest

  ******  operating point information tnom=  25.000 temp=  27.000 *****
 ***** operating point status is all       simulation time is     0.     
    node    =voltage      node    =voltage      node    =voltage

 +0:101     =   2.0000  0:102     = 172.8732m 0:103     =  93.6621m
 +0:104     = 169.4335m 0:105     =   2.2624m 0:111     =   1.0000 
 +0:112     =   1.5000  0:121     =  89.4099m


 ****  voltage sources

 subckt                                   
 element  0:vdd      0:vb       0:vin     
  volts      2.0000     1.0000     1.5000 
  current   -1.4551m    0.         0.     
  power      2.9101m    0.         0.     

     total voltage source power dissipation=    2.9101m       watts



 ***** current sources

 subckt             
 element  0:iref    
  volts     89.4099m
  current    1.0000m
  power    -89.4099u


     total current source power dissipation= -89.4099u       watts

 **** resistors

 subckt                                   
 element  0:rload1   0:rload2   0:rss     
  r value  100.0000k    5.0000   100.0000k
  v drop   169.4335m    2.2624m   89.4099m
  current    1.6943u  452.4752u  894.0987n
  power    287.0771n    1.0237u   79.9412n


 **** diodes


 subckt                        
 element  0:d1       0:d2      
 model    0:diode    0:diode   
  id        -1.6943u  452.4752u
  vd        -3.4397m   91.3997m
  req        2.1713k   55.4928 
  cap        0.         0.     





 **** mosfets


 subckt                                              
 element  0:m1       0:m2       0:m3       0:m4      
 model    0:modn2    0:modn1    0:modp2    0:modp1   
 region       Linear     Linear   Saturati   Saturati
  id       959.4971u   41.3970u -961.1915u -493.8722u
  ibs       -1.2190f   -1.2190f    0.         0.     
  ibd       -2.3569f   -1.2770f   24.9108f   25.9907f
  vgs        1.4106     1.4106    -1.0000    -1.0000 
  vds       83.4633m    4.2522m   -1.8271    -1.9063 
  vbs      -89.4099m  -89.4099m    0.         0.     
  vth      298.1507m  498.1507m -296.9875m -496.9875m
  vdsat     83.4633m    4.2522m -703.0125m -503.0125m
  vod        1.1124   912.4394m -703.0125m -503.0125m
  beta      10.7369m   10.6945m    3.8897m    3.9038m
  gam eff   10.0000m   10.0000m   10.0000m   10.0000m
  gm       896.1335u   45.4755u    2.7345m    1.9637m
  gds       11.0957m    9.7147m   44.0366u   22.5447u
  gmb        6.0434u  306.6822n   20.1528u   14.4719u
  cdtot     43.8082f   44.9301f  219.2563a  228.7617a
  cgtot     89.9655f   90.0132f   60.2378f   60.2542f
  cstot     46.1467f   45.0702f   60.0003f   60.0003f
  cbtot     10.6475a   12.9313a   18.2136a   25.1785a
  cgs       46.1467f   45.0702f   60.0003f   60.0003f
  cgd       43.8082f   44.9301f  219.2563a  228.7617a




          ***** job concluded
1****** HSPICE -- D-2010.03-SP1 32-BIT (May 26 2010) winnt ******               
 ******  
 * diftest

  ******  job statistics summary tnom=  25.000 temp=  27.000 *****

  ******  HSPICE Threads Information  ******

  Command Line Threads Count                  :     1
  Available CPU Count                         :    12
  Actual Model Evaluation(Load) Threads Count :     1
  Actual Solver Threads Count                 :     1


  ******  Circuit Statistics  ******
  # nodes       =       9 # elements   =      13
  # resistors   =       3 # capacitors =       0 # inductors   =       0
  # mutual_inds =       0 # vccs       =       0 # vcvs        =       0
  # cccs        =       0 # ccvs       =       0 # volt_srcs   =       3
  # curr_srcs   =       1 # diodes     =       2 # bjts        =       0
  # jfets       =       0 # mosfets    =       4 # U elements  =       0
  # T elements  =       0 # W elements =       0 # B elements  =       0
  # S elements  =       0 # P elements =       0 # va device   =       0


  ******  Runtime Statistics (seconds)  ******

  analysis           time    # points   tot. iter  conv.iter
  op point           0.02           1          13
  dc sweep           0.02         101         213
  readin             0.18
  errchk             0.03
  setup              0.06
  output             0.00


           total memory used          164  kbytes
           total cpu time            0.38 seconds
           total elapsed time        0.64 seconds
           job started at     17:04:51 05/07/2011
           job ended   at     17:04:51 05/07/2011


  lic: Release hspice token(s) 
