 ****** HSPICE -- D-2010.03-SP1 32-BIT (May 26 2010) winnt ******               
  Copyright (C) 2010 Synopsys, Inc. All Rights Reserved.                        
  Unpublished-rights reserved under US copyright laws.
  This program is protected by law and is subject to the 
  terms and conditions of the license agreement from Synopsys.
  Use of this program is your acceptance to be bound by the 
  license agreement. HSPICE is the trademark of Synopsys, Inc.
  Input File: d:\synopsys\hspice\trytry\inverterbuffer.sp                       
  lic:  
  lic: FLEXlm: v8.5b 
  lic: USER:   zrc                  HOSTNAME: LAPTOP-O4SR7NUK 
  lic: HOSTID: "005056c00001 00ffd46088fe a87eea1f533c 005056c00008 a87eea1f5338
  
  lic: Using FLEXlm license file: 
  lic: C:\flexlm\hspice.dat 
  lic: Checkout 1 hspice 
  lic: License/Maintenance for hspice will expire on 31-dec-2020/2007.9 
  lic: NODE LOCKED license on hostid "005056c00001 00ffd46088fe a87eea1f533c 005
 0
  lic:   
 Init: read install configuration file: D:\synopsys\Hspice_D-2010.03-SP1\meta.cfg
 scientific notation:
 a=10**-18  f=10**-15  p=10**-12  n=10**-9  u=10**-6
 m=10**-3   k=10**3    x=10**6    g=10**9 


 circuit parameter definitions
  parameter          =  value 





 constants  - tnom         kt           vt           gapsi        ni
            298.15000    4.1163e-21    25.69184m     1.11562    1.2565e+16 
1****** HSPICE -- D-2010.03-SP1 32-BIT (May 26 2010) winnt ******               
 ******  
 * non-inverting buffer

  ******  mos   model parameters tnom=  25.000 temp=  25.000 *****
 ***************************************************************************
 *** common model parameters  model name:   0:modp     model type:pmos   ***
 ***************************************************************************
     names  values   units     names  values   units     names  values   units
     -----  ------   -----     -----  ------   -----     -----  ------   -----

   1*** geometry parameters ***
       ld=   0.    meters      lmlt=   1.00                wd=   0.    meters 
     wmlt=   1.00                xl=   0.    meters        xw=   0.    meters 
     lref=   0.    meters      wref=   0.    meters      lref=   0.    meters 
     wref=   0.    meters     xlref=   0.    meters     xwref=   0.    meters 
     lmin=   0.    meters      wmin=   0.    meters      lmax=   0.    meters 
     wmax=   0.    meters 

   2*** threshold voltage parameters ***
      vto=-750.00m volts        nss=   0.    1/cm**2      tpg=   1.00         
      phi= 507.36m volts      gamma=   3.00  v**0.5      bulk=  gnd           
    ngate=   0.    cm**3       nsub= 2.4e+14 1/cm**3   delvto=   0.    volts  

   3*** gate overlap capacitance parameters ***
     cgbo=   0.    f/meter     cgdo=   0.    f/meter     cgso=   0.    f/meter
     meto=   0.    meters 

   4*** gate capacitance parameters ***
    capop=   2.00               cf1=   0.    volts        cf2= 100.00m volts  
      cf3=   1.00  volts        cf4=  50.00               cf5= 666.67m        
      cf6= 500.00               xqc= 500.00m              tox=   1.15u meters 
      cox=  30.00u f/m**2 

   5*** diffusion parasitic parameters ***
      acm=   0.                  is=  10.00f amps          js=   0.    a/m**2 
      jsw=   0.    amp/m        nds=   1.00               cbd=   0.    farad  
      cbs=   0.    farad         cj=  50.31u f/m**2      cjsw=   0.    f/m    
   cjgate=   0.    f/m           mj= 500.00m             mjsw= 330.00m        
       pb= 800.00m volts        php= 800.00m volts         tt=   0.    secs   
     hdif=   0.    meters      ldif=   0.    meters        rd=   0.    ohms   
       rs=   0.    ohms         rsh=   0.    ohms/sq       fc=   0.           
    alpha=   0.                 vcr=   0.    volts      iirat=   0.           
      rdc=   0.    ohms         rsc=   0.    ohms           n=   1.00         
     vnds=  -1.00  volts  

   6*** temperature effect parameters ***
     tlev=   0.               tlevc=   0.                  eg=   1.11  ev     
     gap1= 702.00u ev/deg      gap2=   1.11k deg          xti=   0.           
      bex=  -1.50               tcv=   0.    v/deg k      trd=   0.    /deg   
      trs=   0.    /deg         cta=   0.    /deg         ctp=   0.    /deg   

   7*** noise parameters ***
       kf=   0.                  af=   1.00              nlev=   2.00         
   gdsnoi=   1.00         

   ***  level  1  model parameters  ***

   lambda=  50.00m /v            kp=   1.50u a/v**2 
 ***************************************************************************
 *** common model parameters  model name:   0:modn     model type:nmos   ***
 ***************************************************************************
     names  values   units     names  values   units     names  values   units
     -----  ------   -----     -----  ------   -----     -----  ------   -----

   1*** geometry parameters ***
       ld=   0.    meters      lmlt=   1.00                wd=   0.    meters 
     wmlt=   1.00                xl=   0.    meters        xw=   0.    meters 
     lref=   0.    meters      wref=   0.    meters      lref=   0.    meters 
     wref=   0.    meters     xlref=   0.    meters     xwref=   0.    meters 
     lmin=   0.    meters      wmin=   0.    meters      lmax=   0.    meters 
     wmax=   0.    meters 

   2*** threshold voltage parameters ***
      vto= 830.00m volts        nss=   0.    1/cm**2      tpg=   1.00         
      phi= 507.36m volts      gamma=   3.00  v**0.5      bulk=  gnd           
    ngate=   0.    cm**3       nsub= 2.4e+14 1/cm**3   delvto=   0.    volts  

   3*** gate overlap capacitance parameters ***
     cgbo=   0.    f/meter     cgdo=   0.    f/meter     cgso=   0.    f/meter
     meto=   0.    meters 

   4*** gate capacitance parameters ***
    capop=   2.00               cf1=   0.    volts        cf2= 100.00m volts  
      cf3=   1.00  volts        cf4=  50.00               cf5= 666.67m        
      cf6= 500.00               xqc= 500.00m              tox=   1.15u meters 
      cox=  30.00u f/m**2 

   5*** diffusion parasitic parameters ***
      acm=   0.                  is=  10.00f amps          js=   0.    a/m**2 
      jsw=   0.    amp/m        nds=   1.00               cbd=   0.    farad  
      cbs=   0.    farad         cj=  50.31u f/m**2      cjsw=   0.    f/m    
   cjgate=   0.    f/m           mj= 500.00m             mjsw= 330.00m        
       pb= 800.00m volts        php= 800.00m volts         tt=   0.    secs   
     hdif=   0.    meters      ldif=   0.    meters        rd=   0.    ohms   
       rs=   0.    ohms         rsh=   0.    ohms/sq       fc=   0.           
    alpha=   0.                 vcr=   0.    volts      iirat=   0.           
      rdc=   0.    ohms         rsc=   0.    ohms           n=   1.00         
     vnds=  -1.00  volts  

   6*** temperature effect parameters ***
     tlev=   0.               tlevc=   0.                  eg=   1.11  ev     
     gap1= 702.00u ev/deg      gap2=   1.11k deg          xti=   0.           
      bex=  -1.50               tcv=   0.    v/deg k      trd=   0.    /deg   
      trs=   0.    /deg         cta=   0.    /deg         ctp=   0.    /deg   

   7*** noise parameters ***
       kf=   0.                  af=   1.00              nlev=   2.00         
   gdsnoi=   1.00         

   ***  level  1  model parameters  ***

   lambda=  50.00m /v            kp=   4.50u a/v**2 
1****** HSPICE -- D-2010.03-SP1 32-BIT (May 26 2010) winnt ******               
 ******  
 * non-inverting buffer

  ******  circuit element summary tnom=  25.000 temp=  25.000 *****


 **** resistors

  
 
                                                
 element name        0:rin     0:r2      0:r3   
 node1               0:101     0:104     0:116  
 node2               0:107     0:115     0:117  
 model                                          
 res eff            10.0000   25.0000   35.0000 
 tc1                 0.        0.        0.     
 tc2                 0.        0.        0.     
 scale               1.0000    1.0000    1.0000 
 m                   1.0000    1.0000    1.0000 
 ac                 10.0000   25.0000   35.0000 
 temp               25.0000   25.0000   25.0000 
 l                   0.        0.        0.     
 w                   0.        0.        0.     
 cap                 0.        0.        0.     
 noise            1.000e+00 1.000e+00 1.000e+00 


 **** capacitors
  
 
                                                   
 element name        0:c1       0:c2       0:c3    
 node1               0:104      0:116      0:118   
 node2               0:0        0:0        0:0     
 model                                             
 cap eff           100.0000f  500.0000f    1.0000p 
 tc1                 0.         0.         0.      
 tc2                 0.         0.         0.      
 scale               1.0000     1.0000     1.0000  
 ic                  0.         0.         0.      
 m                   1.0000     1.0000     1.0000  
 w                   0.         0.         0.      
 l                   0.         0.         0.      
 temp               25.0000    25.0000    25.0000  


 **** inductors
  
 
                                        
 element name        0:l1       0:l2    
 node1               0:115      0:117   
 node2               0:116      0:118   
 model                                  
 ind eff           500.0000f  500.0000f 
 res eff             0.         0.      
 tc1                 0.         0.      
 tc2                 0.         0.      
 nt                  1.0000     1.0000  
 ic                  0.         0.      
 m                   1.0000     1.0000  


 **** independent sources

     name         node1        node2      dc volt    ac mag    ac phase    type
  vdd  103               0                    3.0000     0.         0.      dc   
  vin  101               0                    1.5000     0.         0.      dc   


 **** mosfets
  
 
                                        
 element name        0:m1       0:m2    
 drain               0:104      0:104   
 gate                0:107      0:107   
 source              0:0        0:103   
 bulk                0:0        0:103   
 model               0:modn     0:modp  
 w eff              20.0000u   60.0000u 
 l eff             350.0000n  350.0000n 
 rd eff              0.         0.      
 rs eff              0.         0.      
 cdsat              10.0000f   10.0000f 
 cssat              10.0000f   10.0000f 
 capbd               0.         0.      
 capbs               0.         0.      
 temp               25.0000    25.0000  
 aic                                    
  
 
1****** HSPICE -- D-2010.03-SP1 32-BIT (May 26 2010) winnt ******               
 ******  
 * non-inverting buffer

  ******  element node table
                                                                                      
 0                c1               c2               c3               vdd              
                  vin              m1:s             m1:b                              
 101              rin              vin                                                
 103              vdd              m2:s             m2:b                              
 104              r2               c1               m1:d             m2:d             
 107              rin              m1:g             m2:g                              
 115              r2               l1                                                 
 116              r3               c2               l1                                
 117              r3               l2                                                 
 118              c3               l2                                                 
 *****************************************************************
 ******  option summary
 ******
 runlvl  = 3         bypass  = 2         

 **info** rebuilding matrix with pivot option

 ******  
 * non-inverting buffer

  ******  dc transfer curves tnom=  25.000 temp=  25.000 *****
x

        volt    current      current      current      current    
                    m1           m2           rin          r2     
    0.            6.0300p     -6.0300p      0.           0.       
   10.00000m      6.0300p     -6.0299p      0.         -17.7636a  
   20.00000m      6.0300p     -6.0299p      0.          17.7636a  
   30.00000m      6.0300p     -6.0299p      0.           0.       
   40.00000m      6.0300p     -6.0299p      0.           0.       
   50.00000m      6.0300p     -6.0299p   -6.939e-19      0.       
   60.00000m      6.0300p     -6.0299p      0.         -17.7636a  
   70.00000m      6.0300p     -6.0299p      0.           0.       
   80.00000m      6.0300p     -6.0299p      0.           0.       
   90.00000m      6.0300p     -6.0299p      1.3878a      0.       
  100.00000m      6.0300p     -6.0299p     -1.3878a    -17.7636a  
  110.00000m      6.0300p     -6.0299p      0.          17.7636a  
  120.00000m      6.0300p     -6.0299p      0.           0.       
  130.00000m      6.0300p     -6.0299p      0.           0.       
  140.00000m      6.0300p     -6.0299p      0.          17.7636a  
  150.00000m      6.0300p     -6.0299p      0.           0.       
  160.00000m      6.0300p     -6.0299p      0.           0.       
  170.00000m      6.0300p     -6.0299p      0.           0.       
  180.00000m      6.0300p     -6.0299p      2.7756a      0.       
  190.00000m      6.0300p     -6.0299p     -2.7756a    -17.7636a  
  200.00000m      6.0300p     -6.0299p     -2.7756a      0.       
  210.00000m      6.0300p     -6.0299p      0.           0.       
  220.00000m      6.0300p     -6.0299p      0.           0.       
  230.00000m      6.0300p     -6.0299p      0.         -17.7636a  
  240.00000m      6.0300p     -6.0299p      0.           0.       
  250.00000m      6.0300p     -6.0299p      0.           0.       
  260.00000m      6.0300p     -6.0299p      0.          17.7636a  
  270.00000m      6.0300p     -6.0299p      0.          17.7636a  
  280.00000m      6.0300p     -6.0299p      0.           0.       
  290.00000m      6.0300p     -6.0298p      0.         -17.7636a  
  300.00000m      6.0300p     -6.0298p      0.           0.       
  310.00000m      6.0300p     -6.0298p      0.           0.       
  320.00000m      6.0300p     -6.0298p      0.           0.       
  330.00000m      6.0300p     -6.0298p      0.           0.       
  340.00000m      6.0300p     -6.0298p      0.           0.       
  350.00000m      6.0300p     -6.0299p      0.         -17.7636a  
  360.00000m      6.0300p     -6.0299p      5.5511a    -17.7636a  
  370.00000m      6.0300p     -6.0298p      5.5511a    -17.7636a  
  380.00000m      6.0300p     -6.0298p     -5.5511a      0.       
  390.00000m      6.0300p     -6.0298p     -5.5511a     17.7636a  
  400.00000m      6.0300p     -6.0298p     -5.5511a      0.       
  410.00000m      6.0300p     -6.0298p     -5.5511a    -17.7636a  
  420.00000m      6.0300p     -6.0298p      0.         -17.7636a  
  430.00000m      6.0300p     -6.0298p      0.         -17.7636a  
  440.00000m      6.0300p     -6.0298p      0.         -17.7636a  
  450.00000m      6.0300p     -6.0298p      0.           0.       
  460.00000m      6.0300p     -6.0298p      0.         -17.7636a  
  470.00000m      6.0300p     -6.0298p      0.           0.       
  480.00000m      6.0300p     -6.0298p      0.           0.       
  490.00000m      6.0300p     -6.0298p      0.           0.       
  500.00000m      6.0300p     -6.0298p      0.         -17.7636a  
  510.00000m      6.0300p     -6.0298p      0.          17.7636a  
  520.00000m      6.0300p     -6.0298p      0.          17.7636a  
  530.00000m      6.0300p     -6.0298p      0.           0.       
  540.00000m      6.0300p     -6.0298p      0.         -17.7636a  
  550.00000m      6.0300p     -6.0298p      0.         -17.7636a  
  560.00000m      6.0300p     -6.0298p      0.           0.       
  570.00000m      6.0300p     -6.0298p      0.           0.       
  580.00000m      6.0300p     -6.0298p      0.           0.       
  590.00000m      6.0300p     -6.0298p      0.          17.7636a  
  600.00000m      6.0300p     -6.0298p      0.           0.       
  610.00000m      6.0300p     -6.0298p      0.           0.       
  620.00000m      6.0300p     -6.0298p      0.         -17.7636a  
  630.00000m      6.0300p     -6.0298p      0.          17.7636a  
  640.00000m      6.0300p     -6.0298p      0.           0.       
  650.00000m      6.0300p     -6.0298p      0.           0.       
  660.00000m      6.0300p     -6.0298p      0.           0.       
  670.00000m      6.0300p     -6.0298p      0.           0.       
  680.00000m      6.0300p     -6.0298p      0.           0.       
  690.00000m      6.0300p     -6.0298p      0.           0.       
  700.00000m      6.0300p     -6.0298p      0.           0.       
  710.00000m      6.0300p     -6.0298p     11.1022a      0.       
  720.00000m      6.0300p     -6.0298p     11.1022a    -17.7636a  
  730.00000m      6.0300p     -6.0298p     11.1022a     17.7636a  
  740.00000m      6.0300p     -6.0297p     11.1022a    -17.7636a  
  750.00000m      6.0300p     -6.0297p    -11.1022a      0.       
  760.00000m      6.0300p     -6.0298p    -11.1022a    -17.7636a  
  770.00000m      6.0300p     -6.0297p    -11.1022a      0.       
  780.00000m      6.0300p     -6.0297p    -11.1022a    -17.7636a  
  790.00000m      6.0300p     -6.0297p    -11.1022a      0.       
  800.00000m      6.0300p     -6.0297p    -11.1022a      0.       
  810.00000m      6.0300p     -6.0297p    -11.1022a      0.       
  820.00000m      6.0300p     -6.0297p    -11.1022a      0.       
  830.00000m      6.0300p     -6.0297p    -11.1022a      0.       
  840.00000m     14.7917n     -6.0297p      0.           0.       
  850.00000m     59.1486n    -44.1518n      0.           0.       
  860.00000m    133.0755n   -117.8619n      0.           0.       
  870.00000m    236.5710n   -221.1344n      0.          17.7636a  
  880.00000m    369.6327n   -353.9668n      0.          17.7636a  
  890.00000m    532.2576n   -516.3555n      0.           0.       
  900.00000m    724.4417n   -708.2966n      0.         -17.7636a  
  910.00000m    946.1806n   -929.7851n      0.           0.       
  920.00000m      1.1975u     -1.1808u      0.           0.       
  930.00000m      1.4783u     -1.4614u      0.         -17.7636a  
  940.00000m      1.7887u     -1.7715u      0.          17.7636a  
  950.00000m      2.1286u     -2.1111u      0.         -17.7636a  
  960.00000m      2.4980u     -2.4802u      0.           0.       
  970.00000m      2.8969u     -2.8788u      0.           0.       
  980.00000m      3.3253u     -3.3069u      0.           0.       
  990.00000m      3.7832u     -3.7645u      0.           0.       
    1.00000       4.2706u     -4.2516u      0.           0.       
    1.01000       4.7874u     -4.7680u      0.           0.       
    1.02000       5.3337u     -5.3140u      0.           0.       
    1.03000       5.9094u     -5.8893u      0.           0.       
    1.04000       6.5145u     -6.4940u      0.           0.       
    1.05000       7.1490u     -7.1281u      0.           0.       
    1.06000       7.8129u     -7.7916u      0.          17.7636a  
    1.07000       8.5061u     -8.4843u      0.           0.       
    1.08000       9.2286u     -9.2064u      0.          17.7636a  
    1.09000       9.9805u     -9.9577u      0.           0.       
    1.10000      10.7615u    -10.7383u      0.           0.       
    1.11000      11.5718u    -11.5481u      0.         -17.7636a  
    1.12000      12.4113u    -12.3870u      0.         -17.7636a  
    1.13000      13.2800u    -13.2551u      0.           0.       
    1.14000      14.1778u    -14.1523u      0.           0.       
    1.15000      15.1047u    -15.0786u      0.           0.       
    1.16000      16.0606u    -16.0338u      0.           0.       
    1.17000      17.0455u    -17.0180u      0.           0.       
    1.18000      18.0594u    -18.0312u      0.         -17.7636a  
    1.19000      19.1022u    -19.0731u      0.           0.       
    1.20000      20.1737u    -20.1439u      0.           0.       
    1.21000      21.2741u    -21.2434u      0.         -17.7636a  
    1.22000      22.4032u    -22.3715u      0.           0.       
    1.23000      23.5609u    -23.5282u      0.          17.7636a  
    1.24000      24.7472u    -24.7134u      0.           0.       
    1.25000      25.9619u    -25.9270u      0.           0.       
    1.26000      27.2050u    -27.1689u      0.           0.       
    1.27000      28.4765u    -28.4390u      0.           0.       
    1.28000      29.7761u    -29.7372u      0.         -17.7636a  
    1.29000      31.1037u    -31.0634u      0.           0.       
    1.30000      32.4594u    -32.4173u      0.         -17.7636a  
    1.31000      33.8428u    -33.7990u      0.           0.       
    1.32000      35.2539u    -35.2081u      0.           0.       
    1.33000      36.6924u    -36.6445u      0.           0.       
    1.34000      38.1583u    -38.1079u      0.           0.       
    1.35000      39.6513u    -39.5983u      0.           0.       
    1.36000      41.1711u    -41.1152u      0.           0.       
    1.37000      42.7176u    -42.6583u      0.           0.       
    1.38000      44.2903u    -44.2273u      0.           0.       
    1.39000      45.8890u    -45.8218u      0.           0.       
    1.40000      47.5133u    -47.4413u      0.           0.       
    1.41000      49.1627u    -49.0851u     22.2045a     17.7636a  
    1.42000      50.8367u    -50.7525u     22.2045a      0.       
    1.43000      52.5346u    -52.4426u     22.2045a      0.       
    1.44000      54.2556u    -54.1542u     22.2045a      0.       
    1.45000      55.9987u    -55.8857u     22.2045a      0.       
    1.46000      57.7626u    -57.6351u     22.2045a      0.       
    1.47000      59.5456u    -59.3991u     22.2045a     17.7636a  
    1.48000      61.3453u    -61.1732u     22.2045a      0.       
    1.49000      63.1580u    -62.9495u     22.2045a      0.       
    1.50000      64.9680u    -64.9664u    -22.2045a      0.       
    1.51000      66.7772u    -66.7728u    -22.2045a      0.       
    1.52000      68.5430u    -68.5199u    -22.2045a    -17.7636a  
    1.53000      69.6324u    -69.6324u    -22.2045a      0.       
    1.54000      69.6746u    -69.6730u    -22.2045a      0.       
    1.55000      69.6320u    -69.6327u    -22.2045a     -4.4409a  
    1.56000      68.5410u    -68.5412u    -22.2045a      0.       
    1.57000      66.7769u    -66.7770u    -22.2045a      4.4409a  
    1.58000      64.9612u    -64.9682u    -22.2045a      0.       
    1.59000      63.1493u    -63.1514u    -22.2045a      0.       
    1.60000      61.3397u    -61.3406u    -22.2045a      0.       
    1.61000      59.5416u    -59.5421u    -22.2045a      0.       
    1.62000      57.7596u    -57.7599u    -22.2045a      0.       
    1.63000      55.9963u    -55.9965u    -22.2045a     -2.2204a  
    1.64000      54.2537u    -54.2538u    -22.2045a      0.       
    1.65000      52.5330u    -52.5331u    -22.2045a      0.       
    1.66000      50.8354u    -50.8354u    -22.2045a      0.       
    1.67000      49.1616u    -49.1616u      0.           0.       
    1.68000      47.5123u    -47.5124u      0.           0.       
    1.69000      45.8882u    -45.8882u      0.           1.1102a  
    1.70000      44.2896u    -44.2896u      0.           0.       
    1.71000      42.7169u    -42.7169u      0.          -1.1102a  
    1.72000      41.1706u    -41.1706u      0.           0.       
    1.73000      39.6508u    -39.6508u      0.          -1.1102a  
    1.74000      38.1579u    -38.1579u      0.           1.1102a  
    1.75000      36.6920u    -36.6921u      0.           1.1102a  
    1.76000      35.2535u    -35.2535u      0.           0.       
    1.77000      33.8425u    -33.8425u      0.           0.       
    1.78000      32.4591u    -32.4591u      0.           0.       
    1.79000      31.1035u    -31.1035u      0.           0.       
    1.80000      29.7758u    -29.7758u      0.           0.       
    1.81000      28.4763u    -28.4763u      0.           0.       
    1.82000      27.2049u    -27.2049u      0.           0.       
    1.83000      25.9617u    -25.9617u      0.           1.1102a  
    1.84000      24.7470u    -24.7470u      0.        -5.551e-19  
    1.85000      23.5608u    -23.5608u      0.        -5.551e-19  
    1.86000      22.3695u    -22.4032u      0.         5.551e-19  
    1.87000      21.2414u    -21.2741u      0.           0.       
    1.88000      20.1421u    -20.1738u      0.           0.       
    1.89000      19.0714u    -19.1022u      0.           0.       
    1.90000      18.0295u    -18.0594u      0.           0.       
    1.91000      17.0165u    -17.0455u      0.           0.       
    1.92000      16.0324u    -16.0606u      0.        -2.776e-19  
    1.93000      15.0772u    -15.1047u      0.        -2.776e-19  
    1.94000      14.1510u    -14.1778u      0.           0.       
    1.95000      13.2539u    -13.2800u      0.           0.       
    1.96000      12.3859u    -12.4113u      0.           0.       
    1.97000      11.5470u    -11.5718u      0.           0.       
    1.98000      10.7372u    -10.7615u      0.           0.       
    1.99000       9.9567u     -9.9805u      0.           0.       
    2.00000       9.2054u     -9.2286u      0.           0.       
    2.01000       8.4834u     -8.5061u      0.         1.388e-19  
    2.02000       7.7907u     -7.8129u      0.         2.776e-19  
    2.03000       7.1272u     -7.1490u      0.           0.       
    2.04000       6.4932u     -6.5145u      0.         1.388e-19  
    2.05000       5.8885u     -5.9094u      0.           0.       
    2.06000       5.3132u     -5.3337u      0.           0.       
    2.07000       4.7673u     -4.7874u      0.        -6.939e-20  
    2.08000       4.2508u     -4.2706u      0.        -6.939e-20  
    2.09000       3.7638u     -3.7832u      0.           0.       
    2.10000       3.3063u     -3.3253u      0.           0.       
    2.11000       2.8782u     -2.8969u      0.           0.       
    2.12000       2.4796u     -2.4980u      0.        -6.939e-20  
    2.13000       2.1105u     -2.1286u      0.         3.469e-20  
    2.14000       1.7709u     -1.7887u      0.           0.       
    2.15000       1.4608u     -1.4783u      0.           0.       
    2.16000       1.1803u     -1.1975u      0.         3.469e-20  
    2.17000     929.2599n   -946.1807n      0.        -1.735e-20  
    2.18000     707.7873n   -724.4418n      0.           0.       
    2.19000     515.8614n   -532.2576n      0.           0.       
    2.20000     353.4871n   -369.6328n      0.         8.674e-21  
    2.21000     220.6685n   -236.5711n      0.         4.337e-21  
    2.22000     117.4092n   -133.0756n      0.        -2.168e-21  
    2.23000      43.7117n    -59.1486n      0.           0.       
    2.24000    -422.0788p    -14.7917n      0.           0.       
    2.25000     -14.9918n     -6.0301p      0.        -6.617e-26  
    2.26000       6.0379p     -6.0300p      0.           0.       
    2.27000       6.0297p     -6.0300p      0.           0.       
    2.28000       6.0297p     -6.0300p      0.        -1.323e-25  
    2.29000       6.0297p     -6.0300p      0.        -1.323e-25  
    2.30000       6.0297p     -6.0300p      0.           0.       
    2.31000       6.0297p     -6.0300p      0.           0.       
    2.32000       6.0297p     -6.0300p      0.           0.       
    2.33000       6.0297p     -6.0300p      0.           0.       
    2.34000       6.0297p     -6.0300p      0.           0.       
    2.35000       6.0297p     -6.0300p      0.           0.       
    2.36000       6.0297p     -6.0300p      0.        -1.323e-25  
    2.37000       6.0297p     -6.0300p      0.           0.       
    2.38000       6.0297p     -6.0300p      0.           0.       
    2.39000       6.0297p     -6.0300p      0.           0.       
    2.40000       6.0298p     -6.0300p      0.           0.       
    2.41000       6.0298p     -6.0300p      0.        -6.617e-26  
    2.42000       6.0298p     -6.0300p      0.           0.       
    2.43000       6.0298p     -6.0300p      0.        -6.617e-26  
    2.44000       6.0298p     -6.0300p      0.        -6.617e-26  
    2.45000       6.0298p     -6.0300p      0.        -6.617e-26  
    2.46000       6.0298p     -6.0300p      0.        -6.617e-26  
    2.47000       6.0298p     -6.0300p      0.        -6.617e-26  
    2.48000       6.0298p     -6.0300p      0.        -6.617e-26  
    2.49000       6.0298p     -6.0300p      0.        -6.617e-26  
    2.50000       6.0298p     -6.0300p      0.        -6.617e-26  
    2.51000       6.0298p     -6.0300p      0.         6.617e-26  
    2.52000       6.0298p     -6.0300p      0.        -6.617e-26  
    2.53000       6.0298p     -6.0300p      0.        -6.617e-26  
    2.54000       6.0298p     -6.0300p      0.           0.       
    2.55000       6.0298p     -6.0300p      0.        -6.617e-26  
    2.56000       6.0298p     -6.0300p      0.           0.       
    2.57000       6.0298p     -6.0300p      0.         6.617e-26  
    2.58000       6.0298p     -6.0300p      0.        -6.617e-26  
    2.59000       6.0298p     -6.0300p      0.           0.       
    2.60000       6.0298p     -6.0300p      0.         6.617e-26  
    2.61000       6.0298p     -6.0300p      0.         6.617e-26  
    2.62000       6.0298p     -6.0300p      0.           0.       
    2.63000       6.0298p     -6.0300p      0.           0.       
    2.64000       6.0298p     -6.0300p      0.           0.       
    2.65000       6.0298p     -6.0300p      0.         1.323e-25  
    2.66000       6.0298p     -6.0300p      0.           0.       
    2.67000       6.0298p     -6.0300p      0.           0.       
    2.68000       6.0298p     -6.0300p      0.           0.       
    2.69000       6.0298p     -6.0300p      0.        -6.617e-26  
    2.70000       6.0298p     -6.0300p      0.        -6.617e-26  
    2.71000       6.0298p     -6.0300p      0.         1.323e-25  
    2.72000       6.0298p     -6.0300p      0.         6.617e-26  
    2.73000       6.0298p     -6.0300p      0.           0.       
    2.74000       6.0298p     -6.0300p      0.           0.       
    2.75000       6.0298p     -6.0300p      0.           0.       
    2.76000       6.0298p     -6.0300p      0.         6.617e-26  
    2.77000       6.0298p     -6.0300p      0.        -6.617e-26  
    2.78000       6.0298p     -6.0300p      0.           0.       
    2.79000       6.0298p     -6.0300p      0.        -6.617e-26  
    2.80000       6.0298p     -6.0300p      0.         6.617e-26  
    2.81000       6.0298p     -6.0300p      0.           0.       
    2.82000       6.0298p     -6.0300p     44.4089a      0.       
    2.83000       6.0298p     -6.0300p      0.           0.       
    2.84000       6.0298p     -6.0300p     44.4089a      0.       
    2.85000       6.0299p     -6.0300p      0.        -6.617e-26  
    2.86000       6.0299p     -6.0300p     44.4089a    6.617e-26  
    2.87000       6.0299p     -6.0300p      0.           0.       
    2.88000       6.0299p     -6.0300p     44.4089a      0.       
    2.89000       6.0299p     -6.0300p      0.           0.       
    2.90000       6.0299p     -6.0300p     44.4089a    6.617e-26  
    2.91000       6.0299p     -6.0300p      0.           0.       
    2.92000       6.0299p     -6.0300p     44.4089a   -6.617e-26  
    2.93000       6.0299p     -6.0300p      0.        -6.617e-26  
    2.94000       6.0299p     -6.0300p     44.4089a    6.617e-26  
    2.95000       6.0299p     -6.0300p      0.           0.       
    2.96000       6.0299p     -6.0300p     44.4089a      0.       
    2.97000       6.0299p     -6.0300p      0.           0.       
    2.98000       6.0299p     -6.0300p     44.4089a    6.617e-26  
    2.99000       6.0299p     -6.0300p      0.        -6.617e-26  
    3.00000       6.0299p     -6.0300p    -44.4089a      0.       
y
x

        volt    current    
                    r3     
    0.            0.       
   10.00000m      0.       
   20.00000m      0.       
   30.00000m      0.       
   40.00000m      0.       
   50.00000m      0.       
   60.00000m    -12.6883a  
   70.00000m      0.       
   80.00000m      0.       
   90.00000m      0.       
  100.00000m      0.       
  110.00000m      0.       
  120.00000m      0.       
  130.00000m      0.       
  140.00000m      0.       
  150.00000m      0.       
  160.00000m     12.6883a  
  170.00000m      0.       
  180.00000m    -12.6883a  
  190.00000m      0.       
  200.00000m      0.       
  210.00000m      0.       
  220.00000m      0.       
  230.00000m      0.       
  240.00000m      0.       
  250.00000m      0.       
  260.00000m      0.       
  270.00000m      0.       
  280.00000m      0.       
  290.00000m      0.       
  300.00000m      0.       
  310.00000m      0.       
  320.00000m      0.       
  330.00000m      0.       
  340.00000m      0.       
  350.00000m      0.       
  360.00000m      0.       
  370.00000m     12.6883a  
  380.00000m      0.       
  390.00000m      0.       
  400.00000m      0.       
  410.00000m      0.       
  420.00000m      0.       
  430.00000m      0.       
  440.00000m      0.       
  450.00000m      0.       
  460.00000m      0.       
  470.00000m      0.       
  480.00000m      0.       
  490.00000m      0.       
  500.00000m      0.       
  510.00000m      0.       
  520.00000m    -12.6883a  
  530.00000m      0.       
  540.00000m      0.       
  550.00000m      0.       
  560.00000m      0.       
  570.00000m      0.       
  580.00000m      0.       
  590.00000m      0.       
  600.00000m      0.       
  610.00000m      0.       
  620.00000m     12.6883a  
  630.00000m      0.       
  640.00000m      0.       
  650.00000m      0.       
  660.00000m      0.       
  670.00000m      0.       
  680.00000m      0.       
  690.00000m    -12.6883a  
  700.00000m      0.       
  710.00000m      0.       
  720.00000m      0.       
  730.00000m      0.       
  740.00000m      0.       
  750.00000m      0.       
  760.00000m      0.       
  770.00000m      0.       
  780.00000m      0.       
  790.00000m      0.       
  800.00000m      0.       
  810.00000m      0.       
  820.00000m      0.       
  830.00000m      0.       
  840.00000m      0.       
  850.00000m      0.       
  860.00000m      0.       
  870.00000m      0.       
  880.00000m      0.       
  890.00000m      0.       
  900.00000m     12.6883a  
  910.00000m      0.       
  920.00000m      0.       
  930.00000m     12.6883a  
  940.00000m      0.       
  950.00000m      0.       
  960.00000m      0.       
  970.00000m      0.       
  980.00000m      0.       
  990.00000m      0.       
    1.00000       0.       
    1.01000       0.       
    1.02000       0.       
    1.03000       0.       
    1.04000       0.       
    1.05000       0.       
    1.06000       0.       
    1.07000       0.       
    1.08000       0.       
    1.09000       0.       
    1.10000       0.       
    1.11000       0.       
    1.12000       0.       
    1.13000       0.       
    1.14000       0.       
    1.15000       0.       
    1.16000       0.       
    1.17000       0.       
    1.18000       0.       
    1.19000       0.       
    1.20000       0.       
    1.21000       0.       
    1.22000       0.       
    1.23000       0.       
    1.24000      12.6883a  
    1.25000       0.       
    1.26000     -12.6883a  
    1.27000       0.       
    1.28000       0.       
    1.29000       0.       
    1.30000       0.       
    1.31000       0.       
    1.32000     -12.6883a  
    1.33000       0.       
    1.34000       0.       
    1.35000      12.6883a  
    1.36000       0.       
    1.37000     -12.6883a  
    1.38000       0.       
    1.39000       0.       
    1.40000       0.       
    1.41000       0.       
    1.42000       0.       
    1.43000       0.       
    1.44000       0.       
    1.45000       0.       
    1.46000       0.       
    1.47000       0.       
    1.48000       0.       
    1.49000       0.       
    1.50000       0.       
    1.51000      12.6883a  
    1.52000       0.       
    1.53000       0.       
    1.54000       0.       
    1.55000       0.       
    1.56000      -3.1721a  
    1.57000       0.       
    1.58000       0.       
    1.59000       0.       
    1.60000       0.       
    1.61000       0.       
    1.62000       0.       
    1.63000       0.       
    1.64000       0.       
    1.65000       0.       
    1.66000       0.       
    1.67000       0.       
    1.68000       0.       
    1.69000       0.       
    1.70000       0.       
    1.71000       0.       
    1.72000       0.       
    1.73000       0.       
    1.74000       0.       
    1.75000       0.       
    1.76000       0.       
    1.77000       0.       
    1.78000       0.       
    1.79000       0.       
    1.80000       0.       
    1.81000       0.       
    1.82000       0.       
    1.83000       0.       
    1.84000       0.       
    1.85000       0.       
    1.86000       0.       
    1.87000       0.       
    1.88000       0.       
    1.89000    -3.965e-19  
    1.90000       0.       
    1.91000       0.       
    1.92000       0.       
    1.93000       0.       
    1.94000       0.       
    1.95000       0.       
    1.96000       0.       
    1.97000       0.       
    1.98000    -1.983e-19  
    1.99000       0.       
    2.00000       0.       
    2.01000       0.       
    2.02000       0.       
    2.03000       0.       
    2.04000       0.       
    2.05000       0.       
    2.06000       0.       
    2.07000       0.       
    2.08000       0.       
    2.09000       0.       
    2.10000     4.956e-20  
    2.11000       0.       
    2.12000       0.       
    2.13000       0.       
    2.14000       0.       
    2.15000       0.       
    2.16000       0.       
    2.17000       0.       
    2.18000       0.       
    2.19000       0.       
    2.20000       0.       
    2.21000       0.       
    2.22000       0.       
    2.23000       0.       
    2.24000       0.       
    2.25000       0.       
    2.26000       0.       
    2.27000       0.       
    2.28000       0.       
    2.29000       0.       
    2.30000       0.       
    2.31000       0.       
    2.32000       0.       
    2.33000       0.       
    2.34000       0.       
    2.35000       0.       
    2.36000       0.       
    2.37000       0.       
    2.38000       0.       
    2.39000       0.       
    2.40000       0.       
    2.41000       0.       
    2.42000       0.       
    2.43000       0.       
    2.44000       0.       
    2.45000       0.       
    2.46000       0.       
    2.47000     4.727e-26  
    2.48000       0.       
    2.49000       0.       
    2.50000       0.       
    2.51000       0.       
    2.52000       0.       
    2.53000       0.       
    2.54000       0.       
    2.55000       0.       
    2.56000       0.       
    2.57000       0.       
    2.58000       0.       
    2.59000       0.       
    2.60000       0.       
    2.61000       0.       
    2.62000       0.       
    2.63000       0.       
    2.64000       0.       
    2.65000       0.       
    2.66000       0.       
    2.67000       0.       
    2.68000       0.       
    2.69000       0.       
    2.70000       0.       
    2.71000       0.       
    2.72000       0.       
    2.73000       0.       
    2.74000       0.       
    2.75000       0.       
    2.76000       0.       
    2.77000       0.       
    2.78000       0.       
    2.79000       0.       
    2.80000       0.       
    2.81000       0.       
    2.82000       0.       
    2.83000    -4.727e-26  
    2.84000       0.       
    2.85000       0.       
    2.86000       0.       
    2.87000       0.       
    2.88000       0.       
    2.89000       0.       
    2.90000       0.       
    2.91000       0.       
    2.92000       0.       
    2.93000       0.       
    2.94000       0.       
    2.95000       0.       
    2.96000       0.       
    2.97000       0.       
    2.98000       0.       
    2.99000       0.       
    3.00000       0.       
y
1****** HSPICE -- D-2010.03-SP1 32-BIT (May 26 2010) winnt ******               
 ******  
 * non-inverting buffer

  ******  operating point information tnom=  25.000 temp=  25.000 *****
 ***** operating point status is all       simulation time is     0.     
    node    =voltage      node    =voltage      node    =voltage

 +0:101     =   1.5000  0:103     =   3.0000  0:104     =   2.5131 
 +0:107     =   1.5000  0:115     =   2.5131  0:116     =   2.5131 
 +0:117     =   2.5131  0:118     =   2.5131 


 ****  voltage sources

 subckt                        
 element  0:vdd      0:vin     
  volts      3.0000     1.5000 
  current  -64.9679u    0.     
  power    194.9037u    0.     

     total voltage source power dissipation=  194.9037u       watts



 **** resistors

 subckt                                   
 element  0:rin      0:r2       0:r3      
  r value   10.0000    25.0000    35.0000 
  v drop  -222.0446a -444.0892a    0.     
  current  -22.2045a  -17.7636a    0.     
  power      0.         0.         0.     



 **** mosfets


 subckt                        
 element  0:m1       0:m2      
 model    0:modn     0:modp    
 region     Saturati     Linear
  id        64.9679u  -64.9679u
  ibs        0.         0.     
  ibd      -25.1307f    4.8693f
  vgs        1.5000    -1.5000 
  vds        2.5131  -486.9329m
  vbs        0.         0.     
  vth      830.0000m -750.0000m
  vdsat    670.0000m -486.9329m
  vod      670.0000m -750.0000m
  beta     289.4537u  263.4034u
  gam eff    3.0000     3.0000 
  gm       193.9340u  128.2598u
  gds        2.8858u   72.4639u
  gmb      408.4007u  270.0991u
  cdtot    7.037e-19  189.8062a
  cgtot    144.8315a  592.5824a
  cstot    140.0007a  391.6811a
  cbtot      4.1271a   11.0950a
  cgs      140.0007a  391.6811a
  cgd      7.037e-19  189.8062a




          ***** job concluded
1****** HSPICE -- D-2010.03-SP1 32-BIT (May 26 2010) winnt ******               
 ******  
 * non-inverting buffer

  ******  job statistics summary tnom=  25.000 temp=  25.000 *****

  ******  HSPICE Threads Information  ******

  Command Line Threads Count                  :     1
  Available CPU Count                         :    12
  Actual Model Evaluation(Load) Threads Count :     1
  Actual Solver Threads Count                 :     1


  ******  Circuit Statistics  ******
  # nodes       =       9 # elements   =      12
  # resistors   =       3 # capacitors =       3 # inductors   =       2
  # mutual_inds =       0 # vccs       =       0 # vcvs        =       0
  # cccs        =       0 # ccvs       =       0 # volt_srcs   =       2
  # curr_srcs   =       0 # diodes     =       0 # bjts        =       0
  # jfets       =       0 # mosfets    =       2 # U elements  =       0
  # T elements  =       0 # W elements =       0 # B elements  =       0
  # S elements  =       0 # P elements =       0 # va device   =       0


  ******  Runtime Statistics (seconds)  ******

  analysis           time    # points   tot. iter  conv.iter
  op point           0.01           1           8
  dc sweep           0.02         301         646
  readin             0.13
  errchk             0.03
  setup              0.05
  output             0.00


           total memory used          167  kbytes
           total cpu time            0.30 seconds
           total elapsed time        0.57 seconds
           job started at     16:46:07 05/07/2011
           job ended   at     16:46:08 05/07/2011


  lic: Release hspice token(s) 
